(PID.TID 0000.0001) 
(PID.TID 0000.0001) // ======================================================
(PID.TID 0000.0001) //                      MITgcm UV
(PID.TID 0000.0001) //                      =========
(PID.TID 0000.0001) // ======================================================
(PID.TID 0000.0001) // execution environment starting up...
(PID.TID 0000.0001) 
(PID.TID 0000.0001) // MITgcmUV version:  checkpoint67g
(PID.TID 0000.0001) // Build user:        mlosch
(PID.TID 0000.0001) // Build host:        bkli04m001.dmawi.de
(PID.TID 0000.0001) // Build date:        Mon Nov  4 10:21:07 CET 2019
(PID.TID 0000.0001) 
(PID.TID 0000.0001) // =======================================================
(PID.TID 0000.0001) // Execution Environment parameter file "eedata"
(PID.TID 0000.0001) // =======================================================
(PID.TID 0000.0001) ># Example "eedata" file
(PID.TID 0000.0001) ># Lines beginning "#" are comments
(PID.TID 0000.0001) ># nTx - No. threads per process in X
(PID.TID 0000.0001) ># nTy - No. threads per process in Y
(PID.TID 0000.0001) > &EEPARMS
(PID.TID 0000.0001) > nTx=1,
(PID.TID 0000.0001) > nTy=1,
(PID.TID 0000.0001) > /
(PID.TID 0000.0001) ># Note: Some systems use & as the namelist terminator (as shown here).
(PID.TID 0000.0001) >#       Other systems use a / character.
(PID.TID 0000.0001) 
(PID.TID 0000.0001) // =======================================================
(PID.TID 0000.0001) // Computational Grid Specification ( see files "SIZE.h" )
(PID.TID 0000.0001) //                                  ( and "eedata"       )
(PID.TID 0000.0001) // =======================================================
(PID.TID 0000.0001)      nPx =    1 ; /* No. processes in X */
(PID.TID 0000.0001)      nPy =    1 ; /* No. processes in Y */
(PID.TID 0000.0001)      nSx =    1 ; /* No. tiles in X per process */
(PID.TID 0000.0001)      nSy =    1 ; /* No. tiles in Y per process */
(PID.TID 0000.0001)      sNx =   40 ; /* Tile size in X */
(PID.TID 0000.0001)      sNy =  100 ; /* Tile size in Y */
(PID.TID 0000.0001)      OLx =    3 ; /* Tile overlap distance in X */
(PID.TID 0000.0001)      OLy =    3 ; /* Tile overlap distance in Y */
(PID.TID 0000.0001)      nTx =    1 ; /* No. threads in X per process */
(PID.TID 0000.0001)      nTy =    1 ; /* No. threads in Y per process */
(PID.TID 0000.0001)       Nr =    1 ; /* No. levels in the vertical   */
(PID.TID 0000.0001)       Nx =   40 ; /* Total domain size in X ( = nPx*nSx*sNx ) */
(PID.TID 0000.0001)       Ny =  100 ; /* Total domain size in Y ( = nPy*nSy*sNy ) */
(PID.TID 0000.0001)   nTiles =    1 ; /* Total no. tiles per process ( = nSx*nSy ) */
(PID.TID 0000.0001)   nProcs =    1 ; /* Total no. processes ( = nPx*nPy ) */
(PID.TID 0000.0001) nThreads =    1 ; /* Total no. threads per process ( = nTx*nTy ) */
(PID.TID 0000.0001) usingMPI =    F ; /* Flag used to control whether MPI is in use */
(PID.TID 0000.0001)                   /*  note: To execute a program with MPI calls */
(PID.TID 0000.0001)                   /*  it must be launched appropriately e.g     */
(PID.TID 0000.0001)                   /*  "mpirun -np 64 ......"                    */
(PID.TID 0000.0001) useCoupler=    F ;/* Flag used to control communications with   */
(PID.TID 0000.0001)                   /*  other model components, through a coupler */
(PID.TID 0000.0001) useNest2W_parent =    F ;/* Control 2-W Nesting comm */
(PID.TID 0000.0001) useNest2W_child  =    F ;/* Control 2-W Nesting comm */
(PID.TID 0000.0001) debugMode =    F ; /* print debug msg. (sequence of S/R calls)  */
(PID.TID 0000.0001) printMapIncludesZeros=    F ; /* print zeros in Std.Output maps */
(PID.TID 0000.0001) maxLengthPrt1D=   65 /* maxLength of 1D array printed to StdOut */
(PID.TID 0000.0001) 
(PID.TID 0000.0001) // ======================================================
(PID.TID 0000.0001) // Mapping of tiles to threads
(PID.TID 0000.0001) // ======================================================
(PID.TID 0000.0001) // -o- Thread   1, tiles (   1:   1,   1:   1)
(PID.TID 0000.0001) 
(PID.TID 0000.0001) // ======================================================
(PID.TID 0000.0001) // Tile <-> Tile connectvity table
(PID.TID 0000.0001) // ======================================================
(PID.TID 0000.0001) // Tile number: 000001 (process no. = 000000)
(PID.TID 0000.0001) //        WEST: Tile = 000001, Process = 000000, Comm = put
(PID.TID 0000.0001) //                bi = 000001, bj = 000001
(PID.TID 0000.0001) //        EAST: Tile = 000001, Process = 000000, Comm = put
(PID.TID 0000.0001) //                bi = 000001, bj = 000001
(PID.TID 0000.0001) //       SOUTH: Tile = 000001, Process = 000000, Comm = put
(PID.TID 0000.0001) //                bi = 000001, bj = 000001
(PID.TID 0000.0001) //       NORTH: Tile = 000001, Process = 000000, Comm = put
(PID.TID 0000.0001) //                bi = 000001, bj = 000001
(PID.TID 0000.0001) 
(PID.TID 0000.0001)  INI_PARMS: opening model parameter file "data"
(PID.TID 0000.0001)  OPEN_COPY_DATA_FILE: opening file data
(PID.TID 0000.0001) // =======================================================
(PID.TID 0000.0001) // Parameter file "data"
(PID.TID 0000.0001) // =======================================================
(PID.TID 0000.0001) ># Dynamical comparison between continuum mechanics in MITgcm and
(PID.TID 0000.0001) ># Discrete model DESIgn fron A. Herman, described in Herman et al 2016
(PID.TID 0000.0001) >#
(PID.TID 0000.0001) ># Damien Ringeisen, 2016
(PID.TID 0000.0001) >#
(PID.TID 0000.0001) ># ====================
(PID.TID 0000.0001) ># | Model parameters |
(PID.TID 0000.0001) ># ====================
(PID.TID 0000.0001) >#
(PID.TID 0000.0001) ># Continuous equation parameters
(PID.TID 0000.0001) >#
(PID.TID 0000.0001) >#   tRef            - Reference vertical potential temperature          (deg C)
(PID.TID 0000.0001) >#   sRef            - Reference vertical salinity                         (PSU)
(PID.TID 0000.0001) >#   viscAh          - Horizontal eddy viscosity coefficient             (m^2/s)
(PID.TID 0000.0001) >#   viscAz          - Vertical eddy viscosity coefficient               (m^2/s)
(PID.TID 0000.0001) >#   diffKhT         - Horizontal temperature diffusivity                (m^2/s)
(PID.TID 0000.0001) >#   diffKzT         - Vertical temperature diffusivity                  (m^2/s)
(PID.TID 0000.0001) >#   diffKhS         - Horizontal salt diffusivity                       (m^2/s)
(PID.TID 0000.0001) >#   diffKzS         - Vertical salt diffusivity                         (m^2/s)
(PID.TID 0000.0001) >#   gravity         - Acceleration due to gravity                       (m/s^2)
(PID.TID 0000.0001) >#   rigidLid        - Set to true to use rigid lid
(PID.TID 0000.0001) >#   implicitFreeSurface - Set to true to use implicit free surface
(PID.TID 0000.0001) >#   eosType         - Flag for linear or polynomial equation of state
(PID.TID 0000.0001) >#   momAdvection    - On/Off flag for momentum self transport
(PID.TID 0000.0001) >#   momViscosity    - On/Off flag for momentum mixing
(PID.TID 0000.0001) >#   f0              - Coriolis parameters, set to 0 to ignore coriolis force
(PID.TID 0000.0001) >#   beta            - Coriolis parameters, set to 0 to ignore coriolis force
(PID.TID 0000.0001) >#
(PID.TID 0000.0001) > &PARM01
(PID.TID 0000.0001) > tRef= 24.0,
(PID.TID 0000.0001) > sRef= 34.65,
(PID.TID 0000.0001) > no_slip_sides=.FALSE.,
(PID.TID 0000.0001) > no_slip_bottom=.TRUE.,
(PID.TID 0000.0001) > viscAz=1.93e-5,
(PID.TID 0000.0001) > viscAh=5.E4,
(PID.TID 0000.0001) > diffKhT=0.0,
(PID.TID 0000.0001) > diffKzT=1.46e-5,
(PID.TID 0000.0001) > diffKhS=0.0,
(PID.TID 0000.0001) > diffKzS=1.46e-5,
(PID.TID 0000.0001) > rigidLid=.FALSE.,
(PID.TID 0000.0001) > implicitFreeSurface=.TRUE.,
(PID.TID 0000.0001) > eosType='JMD95Z',
(PID.TID 0000.0001) > saltStepping=.FALSE.,
(PID.TID 0000.0001) > tempStepping=.FALSE.,
(PID.TID 0000.0001) > momStepping=.FALSE.,
(PID.TID 0000.0001) > implicitDiffusion=.TRUE.,
(PID.TID 0000.0001) > implicitViscosity=.TRUE.,
(PID.TID 0000.0001) > allowFreezing=.FALSE.,
(PID.TID 0000.0001) >#- set wrong celsius2K to reproduce old results:
(PID.TID 0000.0001) > celsius2K=273.16,
(PID.TID 0000.0001) > HeatCapacity_Cp = 3986.D0,
(PID.TID 0000.0001) > gravity         = 9.8156,
(PID.TID 0000.0001) > rhoConst        = 1027.D0,
(PID.TID 0000.0001) > rhoConstFresh   = 999.8,
(PID.TID 0000.0001) > useSingleCpuIO=.TRUE.,
(PID.TID 0000.0001) > readBinaryPrec=64,
(PID.TID 0000.0001) > writeBinaryPrec=64,
(PID.TID 0000.0001) > f0=0.,
(PID.TID 0000.0001) > beta=0.,
(PID.TID 0000.0001) > /
(PID.TID 0000.0001) >
(PID.TID 0000.0001) ># Elliptic solver parameters
(PID.TID 0000.0001) >#
(PID.TID 0000.0001) >#   cg2dMaxIters       - Maximum number of 2d solver iterations
(PID.TID 0000.0001) >#   cg2dTargetResidual - Solver target residual
(PID.TID 0000.0001) >#
(PID.TID 0000.0001) > &PARM02
(PID.TID 0000.0001) > cg2dMaxIters=500,
(PID.TID 0000.0001) > cg2dTargetResidual=1.E-12,
(PID.TID 0000.0001) > /
(PID.TID 0000.0001) >
(PID.TID 0000.0001) ># Time stepping parameters
(PID.TID 0000.0001) >#
(PID.TID 0000.0001) >#   startTime         - Integration starting time                (s)
(PID.TID 0000.0001) >#   endTime           - Integration ending time                  (s)
(PID.TID 0000.0001) >#   deltaTMom         - Timestep for momemtum equations          (s)
(PID.TID 0000.0001) >#   deltaTtracer      - Tracer timestep                          (s)
(PID.TID 0000.0001) >#   deltaTClock       - Timestep used as model "clock"           (s)
(PID.TID 0000.0001) >#   abEps             - Adams-Bashforth stabilising factor
(PID.TID 0000.0001) >#   pChkPtFreq        - Frequency of permanent check pointing    (s)
(PID.TID 0000.0001) >#   chkPtFreq         - Frequency of rolling check pointing      (s)
(PID.TID 0000.0001) >#   dumpFreq          - Frequency at which model state is stored (s)
(PID.TID 0000.0001) >#   tauThetaClimRelax - Relaxation to climatology time scale     (s)
(PID.TID 0000.0001) >#   tauSaltClimRelax  - Relaxation to climatology time scale     (s)
(PID.TID 0000.0001) >#
(PID.TID 0000.0001) > &PARM03
(PID.TID 0000.0001) ># for testing use a short integration
(PID.TID 0000.0001) > nIter0=0,
(PID.TID 0000.0001) > nTimeSteps=10,
(PID.TID 0000.0001) ># this is for real experiments
(PID.TID 0000.0001) >#startTime=0.0,
(PID.TID 0000.0001) >#endTime=200,
(PID.TID 0000.0001) > deltaT=0.1,
(PID.TID 0000.0001) > cAdjFreq=0.,
(PID.TID 0000.0001) > abEps=0.1,
(PID.TID 0000.0001) > forcing_In_AB = .FALSE.,
(PID.TID 0000.0001) ># pChkptFreq=36000.,
(PID.TID 0000.0001) ># chkptFreq= 0.,
(PID.TID 0000.0001) ># dumpFreq = 360.,
(PID.TID 0000.0001) > dumpInitAndLast=.FALSE.,
(PID.TID 0000.0001) > monitorFreq=0.1,
(PID.TID 0000.0001) > pickupStrictlyMatch=.FALSE.,
(PID.TID 0000.0001) > /
(PID.TID 0000.0001) >
(PID.TID 0000.0001) ># Gridding parameters
(PID.TID 0000.0001) >#
(PID.TID 0000.0001) >#   usingCartesianGrid      - On/Off flag for cartesian coordinates
(PID.TID 0000.0001) >#   delX                    - Zonal grid spacing         (m)
(PID.TID 0000.0001) >#   delY                    - Meridional grid spacing    (m)
(PID.TID 0000.0001) >#   delZ                    - Vertical grid spacing      (m)
(PID.TID 0000.0001) >#
(PID.TID 0000.0001) > &PARM04
(PID.TID 0000.0001) > usingCartesianGrid=.TRUE.,
(PID.TID 0000.0001) > dXspacing=250.0,
(PID.TID 0000.0001) > dYspacing=250.0,
(PID.TID 0000.0001) > delZ= 200.,
(PID.TID 0000.0001) > /
(PID.TID 0000.0001) >
(PID.TID 0000.0001) ># Input datasets
(PID.TID 0000.0001) >#
(PID.TID 0000.0001) >#   bathyFile       - File containing bathymetry
(PID.TID 0000.0001) >#   hydrogThetaFile - File containing initial potential temperature data
(PID.TID 0000.0001) >#   hydrogSaltFile  - File containing initial salinity data
(PID.TID 0000.0001) >#   zonalWindFile   - File containing zonal wind data
(PID.TID 0000.0001) >#   meridWindFile   - File containing meridional wind data
(PID.TID 0000.0001) >#   thetaClimFile   - File containing theta climatology used for relaxation
(PID.TID 0000.0001) >#   saltClimFile    - File containing salt climatology used for relaxation
(PID.TID 0000.0001) >#
(PID.TID 0000.0001) > &PARM05
(PID.TID 0000.0001) > bathyFile       = 'bathy_DMcomp.bin',
(PID.TID 0000.0001) > /
(PID.TID 0000.0001) 
(PID.TID 0000.0001)  INI_PARMS ; starts to read PARM01
(PID.TID 0000.0001)  INI_PARMS ; read PARM01 : OK
(PID.TID 0000.0001)  INI_PARMS ; starts to read PARM02
(PID.TID 0000.0001)  INI_PARMS ; read PARM02 : OK
(PID.TID 0000.0001)  INI_PARMS ; starts to read PARM03
(PID.TID 0000.0001)  INI_PARMS ; read PARM03 : OK
(PID.TID 0000.0001)  INI_PARMS ; starts to read PARM04
(PID.TID 0000.0001)  INI_PARMS ; read PARM04 : OK
(PID.TID 0000.0001)  INI_PARMS ; starts to read PARM05
(PID.TID 0000.0001)  INI_PARMS ; read PARM05 : OK
(PID.TID 0000.0001)  INI_PARMS: finished reading file "data"
(PID.TID 0000.0001)  PACKAGES_BOOT: opening data.pkg
(PID.TID 0000.0001)  OPEN_COPY_DATA_FILE: opening file data.pkg
(PID.TID 0000.0001) // =======================================================
(PID.TID 0000.0001) // Parameter file "data.pkg"
(PID.TID 0000.0001) // =======================================================
(PID.TID 0000.0001) ># Packages
(PID.TID 0000.0001) > &PACKAGES
(PID.TID 0000.0001) >  useEXF    = .TRUE.,
(PID.TID 0000.0001) >  useSEAICE = .TRUE.,
(PID.TID 0000.0001) >  useOBCS   = .TRUE.,
(PID.TID 0000.0001) >  useDiagnostics = .TRUE.,
(PID.TID 0000.0001) > /
(PID.TID 0000.0001) >
(PID.TID 0000.0001) 
(PID.TID 0000.0001)  PACKAGES_BOOT: finished reading data.pkg
(PID.TID 0000.0001) ** WARNING ** PACKAGES_BOOT: useCAL no longer set to T when using EXF (useEXF=T)
(PID.TID 0000.0001) ** WARNING ** PACKAGES_BOOT:  as it used to be before checkpoint66d (2017/02/13)
(PID.TID 0000.0001)  PACKAGES_BOOT: On/Off package Summary
 --------  pkgs with a standard "usePKG" On/Off switch in "data.pkg":  --------
 pkg/obcs                 compiled   and   used ( useOBCS                  = T )
 pkg/kpp                  compiled but not used ( useKPP                   = F )
 pkg/gmredi               compiled but not used ( useGMRedi                = F )
 pkg/cal                  compiled but not used ( useCAL                   = F )
 pkg/exf                  compiled   and   used ( useEXF                   = T )
 pkg/seaice               compiled   and   used ( useSEAICE                = T )
 pkg/diagnostics          compiled   and   used ( useDiagnostics           = T )
 pkg/mnc                  compiled but not used ( useMNC                   = F )
 -------- pkgs without standard "usePKG" On/Off switch in "data.pkg":  --------
 pkg/generic_advdiff      compiled but not used ( useGAD                   = F )
 pkg/mom_common           compiled but not used ( momStepping              = F )
 pkg/mom_vecinv           compiled but not used ( +vectorInvariantMomentum = F )
 pkg/mom_fluxform         compiled but not used ( & not vectorInvariantMom = F )
 pkg/monitor              compiled   and   used ( monitorFreq > 0.         = T )
 pkg/debug                compiled but not used ( debugMode                = F )
 pkg/rw                   compiled   and   used
 pkg/mdsio                compiled   and   used
(PID.TID 0000.0001)  PACKAGES_BOOT: End of package Summary
(PID.TID 0000.0001) 
(PID.TID 0000.0001) EXF_READPARMS: opening data.exf
(PID.TID 0000.0001)  OPEN_COPY_DATA_FILE: opening file data.exf
(PID.TID 0000.0001) // =======================================================
(PID.TID 0000.0001) // Parameter file "data.exf"
(PID.TID 0000.0001) // =======================================================
(PID.TID 0000.0001) >#
(PID.TID 0000.0001) ># *********************
(PID.TID 0000.0001) ># External Forcing Data
(PID.TID 0000.0001) ># *********************
(PID.TID 0000.0001) > &EXF_NML_01
(PID.TID 0000.0001) >#
(PID.TID 0000.0001) >#useExfCheckRange  = .TRUE.,
(PID.TID 0000.0001) >#repeatPeriod      = 2635200.0,
(PID.TID 0000.0001) > exf_iprec         = 64,
(PID.TID 0000.0001) > exf_monFreq       = 86400000.,
(PID.TID 0000.0001) >#useRelativeWind = .TRUE.,
(PID.TID 0000.0001) >#
(PID.TID 0000.0001) > /
(PID.TID 0000.0001) >
(PID.TID 0000.0001) ># *********************
(PID.TID 0000.0001) > &EXF_NML_02
(PID.TID 0000.0001) >#
(PID.TID 0000.0001) >#ustressstartdate1 = 19781216,
(PID.TID 0000.0001) >#ustressstartdate2 = 180000,
(PID.TID 0000.0001) >#ustressperiod     = 0.0,
(PID.TID 0000.0001) >#
(PID.TID 0000.0001) >#vstressstartdate1 = 19781216,
(PID.TID 0000.0001) >#vstressstartdate2 = 180000,
(PID.TID 0000.0001) >#vstressperiod     = 0.0,
(PID.TID 0000.0001) >#
(PID.TID 0000.0001) ># atempstartdate1   = 19781216,
(PID.TID 0000.0001) ># atempstartdate2   = 180000,
(PID.TID 0000.0001) ># atempperiod       = 0.0,
(PID.TID 0000.0001) >#
(PID.TID 0000.0001) ># aqhstartdate1     = 19781216,
(PID.TID 0000.0001) ># aqhstartdate2     = 180000,
(PID.TID 0000.0001) ># aqhperiod         = 0.0,
(PID.TID 0000.0001) >#
(PID.TID 0000.0001) ># precipstartdate1  = 19781216,
(PID.TID 0000.0001) ># precipstartdate2  = 180000,
(PID.TID 0000.0001) ># precipperiod      = 0.0,
(PID.TID 0000.0001) >#
(PID.TID 0000.0001) ># uwindstartdate1   = 19781216,
(PID.TID 0000.0001) ># uwindstartdate2   = 180000,
(PID.TID 0000.0001) ># uwindperiod       = 0.0,
(PID.TID 0000.0001) >#
(PID.TID 0000.0001) ># vwindstartdate1   = 19781216,
(PID.TID 0000.0001) ># vwindstartdate2   = 180000,
(PID.TID 0000.0001) ># vwindperiod       = 0.0,
(PID.TID 0000.0001) >#
(PID.TID 0000.0001) ># swdownstartdate1  = 19781216,
(PID.TID 0000.0001) ># swdownstartdate2  = 180000,
(PID.TID 0000.0001) ># swdownperiod      = 0.0,
(PID.TID 0000.0001) >#
(PID.TID 0000.0001) ># lwdownstartdate1  = 19781216,
(PID.TID 0000.0001) ># lwdownstartdate2  = 180000,
(PID.TID 0000.0001) ># lwdownperiod      = 0.0,
(PID.TID 0000.0001) >#
(PID.TID 0000.0001) ># climsststartdate1  = 19781216,
(PID.TID 0000.0001) ># climsststartdate2  = 180000,
(PID.TID 0000.0001) ># climsstperiod      = 0.0,
(PID.TID 0000.0001) >#climsstTauRelax    = 2592000.,
(PID.TID 0000.0001) >#
(PID.TID 0000.0001) ># climsssstartdate1  = 19781216,
(PID.TID 0000.0001) ># climsssstartdate2  = 180000,
(PID.TID 0000.0001) ># climsssperiod      = 0.0,
(PID.TID 0000.0001) >#climsssTauRelax    = 2592000.,
(PID.TID 0000.0001) >#
(PID.TID 0000.0001) ># ustressfile       = ' ',
(PID.TID 0000.0001) ># vstressfile       = ' ',
(PID.TID 0000.0001) ># atempfile         = 'tair_4x.bin',
(PID.TID 0000.0001) ># aqhfile           = 'qa70_4x.bin',
(PID.TID 0000.0001) ># uwindfile         = 'windx.bin',
(PID.TID 0000.0001) >##vwindfile         = 'windy.bin',
(PID.TID 0000.0001) ># precipfile        = 'const_00.bin',
(PID.TID 0000.0001) ># lwdownfile        = 'dlw_250.bin',
(PID.TID 0000.0001) ># swdownfile        = 'dsw_100.bin',
(PID.TID 0000.0001) ># runoffFile        = ' '
(PID.TID 0000.0001) ># climsstfile       = 'tocn.bin',
(PID.TID 0000.0001) >##climsssfile       = 'socn.bin',
(PID.TID 0000.0001) > /
(PID.TID 0000.0001) >
(PID.TID 0000.0001) ># *********************
(PID.TID 0000.0001) > &EXF_NML_03
(PID.TID 0000.0001) >#exf_offset_atemp=5;
(PID.TID 0000.0001) > /
(PID.TID 0000.0001) >
(PID.TID 0000.0001) ># *********************
(PID.TID 0000.0001) ># old open64 compiler (4.2.1) cannot skip this namelist to read in the next one;
(PID.TID 0000.0001) ># comment out this namelist (not read).
(PID.TID 0000.0001) >#&EXF_NML_04
(PID.TID 0000.0001) >#&
(PID.TID 0000.0001) >
(PID.TID 0000.0001) ># *********************
(PID.TID 0000.0001) > &EXF_NML_OBCS
(PID.TID 0000.0001) ># obcsNstartdate1   = 20170101,
(PID.TID 0000.0001) ># obcsNstartdate2   = 060000,
(PID.TID 0000.0001) >#obcsNperiod       = 2629800.0,
(PID.TID 0000.0001) > obcsNperiod       = 200.1,
(PID.TID 0000.0001) >#
(PID.TID 0000.0001) ># obcsWstartdate1   = 20170101,
(PID.TID 0000.0001) ># obcsWstartdate2   = 060000,
(PID.TID 0000.0001) >#obcsWperiod       = 2629800.0,
(PID.TID 0000.0001) ># obcsWperiod       = 10,
(PID.TID 0000.0001) >#
(PID.TID 0000.0001) ># obcsEstartdate1   = 20170101,
(PID.TID 0000.0001) ># obcsEstartdate2   = 060000,
(PID.TID 0000.0001) >#obcsEperiod       = 2629800.0,
(PID.TID 0000.0001) ># obcsEperiod       = 10,
(PID.TID 0000.0001) > /
(PID.TID 0000.0001) 
(PID.TID 0000.0001) EXF_READPARMS: reading EXF_NML_01
(PID.TID 0000.0001) EXF_READPARMS: reading EXF_NML_02
(PID.TID 0000.0001) EXF_READPARMS: reading EXF_NML_03
(PID.TID 0000.0001) EXF_READPARMS: reading EXF_NML_OBCS
(PID.TID 0000.0001) EXF_READPARMS: finished reading data.exf
(PID.TID 0000.0001)  OBCS_READPARMS: opening data.obcs
(PID.TID 0000.0001)  OPEN_COPY_DATA_FILE: opening file data.obcs
(PID.TID 0000.0001) // =======================================================
(PID.TID 0000.0001) // Parameter file "data.obcs"
(PID.TID 0000.0001) // =======================================================
(PID.TID 0000.0001) ># ***************
(PID.TID 0000.0001) ># Open boundaries
(PID.TID 0000.0001) ># ***************
(PID.TID 0000.0001) > &OBCS_PARM01
(PID.TID 0000.0001) >#OB_Jsouth =   800*1,
(PID.TID 0000.0001) > OB_Jnorth =   40*-1,
(PID.TID 0000.0001) > OB_Iwest  =   100*1,
(PID.TID 0000.0001) > OB_Ieast  =   100*-1,
(PID.TID 0000.0001) ># This flag check and equalise topography across open boundaries:
(PID.TID 0000.0001) > OBCSfixTopo = .TRUE.,
(PID.TID 0000.0001) > useOBCSprescribe=.TRUE.,
(PID.TID 0000.0001) >#
(PID.TID 0000.0001) > OBCS_Cont_uvice_N=.FALSE.,
(PID.TID 0000.0001) > OBCS_Cont_uvice_S=.FALSE.,
(PID.TID 0000.0001) > OBCS_Cont_uvice_E=.TRUE.,
(PID.TID 0000.0001) > OBCS_Cont_uvice_W=.TRUE.,
(PID.TID 0000.0001) > OBCS_Cont_seaice_N=.TRUE.,
(PID.TID 0000.0001) > OBCS_Cont_seaice_S=.FALSE.,
(PID.TID 0000.0001) > OBCS_Cont_seaice_E=.TRUE.,
(PID.TID 0000.0001) > OBCS_Cont_seaice_W=.TRUE.,
(PID.TID 0000.0001) >#
(PID.TID 0000.0001) ># OBSsFile='OBSs.DMcomp',
(PID.TID 0000.0001) ># OBStFile='OBSt.DMcomp',
(PID.TID 0000.0001) ># OBSuFile='OBSu.DMcomp',
(PID.TID 0000.0001) ># OBSvFile='OBSv.DMcomp',
(PID.TID 0000.0001) ># OBNsFile='OBNs.DMcomp',
(PID.TID 0000.0001) ># OBNtFile='OBNt.DMcomp',
(PID.TID 0000.0001) ># OBNuFile='OBNu.DMcomp',
(PID.TID 0000.0001) ># OBNvFile='OBNv.DMcomp',
(PID.TID 0000.0001) ># OBWsFile='OBWs.DMcomp',
(PID.TID 0000.0001) ># OBWtFile='OBWt.DMcomp',
(PID.TID 0000.0001) ># OBWuFile='OBWu.DMcomp',
(PID.TID 0000.0001) ># OBWvFile='OBWv.DMcomp',
(PID.TID 0000.0001) ># OBEsFile='OBEs.DMcomp',
(PID.TID 0000.0001) ># OBEtFile='OBEt.DMcomp',
(PID.TID 0000.0001) ># OBEuFile='OBEu.DMcomp',
(PID.TID 0000.0001) ># OBEvFile='OBEv.DMcomp',
(PID.TID 0000.0001) >#
(PID.TID 0000.0001) ># OBShFile='OBSh.DMcomp',
(PID.TID 0000.0001) ># OBNhFile='OBNh.DMcomp',
(PID.TID 0000.0001) ># OBEhFile='OBEh.DMcomp',
(PID.TID 0000.0001) ># OBWhFile='OBWh.DMcomp',
(PID.TID 0000.0001) ># OBSaFile='OBSa.DMcomp',
(PID.TID 0000.0001) ># OBNaFile='OBNa.DMcomp',
(PID.TID 0000.0001) ># OBEaFile='OBEa.DMcomp',
(PID.TID 0000.0001) ># OBWaFile='OBWa.DMcomp',
(PID.TID 0000.0001) ># OBSsnFile='OBSsn.DMcomp',
(PID.TID 0000.0001) ># OBNsnFile='OBNsn.DMcomp',
(PID.TID 0000.0001) ># OBEsnFile='OBEsn.DMcomp',
(PID.TID 0000.0001) ># OBWsnFile='OBWsn.DMcomp',
(PID.TID 0000.0001) ># OBSslFile='OBSsl.DMcomp',
(PID.TID 0000.0001) ># OBNslFile='OBNsl.DMcomp',
(PID.TID 0000.0001) ># OBEslFile='OBEsl.DMcomp',
(PID.TID 0000.0001) ># OBWslFile='OBWsl.DMcomp',
(PID.TID 0000.0001) ># OBSuiceFile='OBSuice.DMcomp',
(PID.TID 0000.0001) > OBNuiceFile='OBNuice.DMcomp',
(PID.TID 0000.0001) ># OBEuiceFile='OBEuice.DMcomp',
(PID.TID 0000.0001) ># OBWuiceFile='OBWuice.DMcomp',
(PID.TID 0000.0001) ># OBSviceFile='OBSvice.DMcomp',
(PID.TID 0000.0001) > OBNviceFile='OBNvice.DMcomp',
(PID.TID 0000.0001) ># OBEviceFile='OBEvice.DMcomp',
(PID.TID 0000.0001) ># OBWviceFile='OBWvice.DMcomp',
(PID.TID 0000.0001) > /
(PID.TID 0000.0001) 
(PID.TID 0000.0001)  OBCS_READPARMS: finished reading data.obcs
(PID.TID 0000.0001)  OB_indexUnset = /* unset OB index value (i.e. no OB) */
(PID.TID 0000.0001)                       0
(PID.TID 0000.0001)     ;
(PID.TID 0000.0001)  Northern OB global indices : OB_Jnorth =
(PID.TID 0000.0001)    40 @      100                            /* I =  1: 40 */
(PID.TID 0000.0001)  Southern OB global indices : OB_Jsouth =
(PID.TID 0000.0001)    40 @        0                            /* I =  1: 40 */
(PID.TID 0000.0001)  Eastern  OB global indices : OB_Ieast =
(PID.TID 0000.0001)   100 @       40                            /* J =  1:100 */
(PID.TID 0000.0001)  Western  OB global indices : OB_Iwest =
(PID.TID 0000.0001)   100 @        1                            /* J =  1:100 */
(PID.TID 0000.0001) 
(PID.TID 0000.0001) 
(PID.TID 0000.0001)  SEAICE_READPARMS: opening data.seaice
(PID.TID 0000.0001)  OPEN_COPY_DATA_FILE: opening file data.seaice
(PID.TID 0000.0001) // =======================================================
(PID.TID 0000.0001) // Parameter file "data.seaice"
(PID.TID 0000.0001) // =======================================================
(PID.TID 0000.0001) ># SEAICE parameters
(PID.TID 0000.0001) > &SEAICE_PARM01
(PID.TID 0000.0001) > SEAICErestoreUnderIce=.TRUE.,
(PID.TID 0000.0001) > usePW79thermodynamics=.FALSE.,
(PID.TID 0000.0001) > SEAICE_strength    = 2.750e+04,
(PID.TID 0000.0001) > OCEAN_drag         = 8.1541e-04,
(PID.TID 0000.0001) >
(PID.TID 0000.0001) >### Solvers
(PID.TID 0000.0001) >## Preconditionner
(PID.TID 0000.0001) ># SEAICEpreconNL_Iter= 100,
(PID.TID 0000.0001) ># SEAICEpreconLinIter= 100,
(PID.TID 0000.0001) >
(PID.TID 0000.0001) >## Global
(PID.TID 0000.0001) > SEAICElinearIterMax= 1500,
(PID.TID 0000.0001) ># for tests
(PID.TID 0000.0001) > SEAICEnonlinIterMax= 10,
(PID.TID 0000.0001) ># for real experiments
(PID.TID 0000.0001) >#SEAICEnonlinIterMax= 1500,
(PID.TID 0000.0001) > SEAICEnonLinTol    = 1.E-11,
(PID.TID 0000.0001) > SEAICE_Olx=1,
(PID.TID 0000.0001) > SEAICE_Oly=1,
(PID.TID 0000.0001) >
(PID.TID 0000.0001) >
(PID.TID 0000.0001) >## LSR
(PID.TID 0000.0001) > LSR_ERROR          = 1.E-11,
(PID.TID 0000.0001) ># LSR_mixIniGuess    = 1,
(PID.TID 0000.0001) >
(PID.TID 0000.0001) >## Krylov
(PID.TID 0000.0001) > SEAICEuseKrylov    = .FALSE.,
(PID.TID 0000.0001) >
(PID.TID 0000.0001) >## JNFK
(PID.TID 0000.0001) > SEAICEuseJFNK      = .FALSE.,
(PID.TID 0000.0001) > JFNKres_t          = 1.E-05,
(PID.TID 0000.0001) >
(PID.TID 0000.0001) > SEAICE_no_Slip     = .TRUE.,
(PID.TID 0000.0001) > SEAICEwriteState   = .TRUE.,
(PID.TID 0000.0001) >#SEAICE_monFreq = 0.1,
(PID.TID 0000.0001) > SEAICEADVSCHEME = 33,
(PID.TID 0000.0001) > HeffFile        = 'ice0_heff_DMcomp.bin',
(PID.TID 0000.0001) > AreaFile        = 'ice0_area_DMcomp.bin',
(PID.TID 0000.0001) >#
(PID.TID 0000.0001) > SEAICEpressReplFac = 0.0,
(PID.TID 0000.0001) ># Mohr-Coulomb yield curve (Ip, 1990)
(PID.TID 0000.0001) > SEAICEuseFullMC = .TRUE.
(PID.TID 0000.0001) ># with thes slope parameters
(PID.TID 0000.0001) > SEAICEmcMu=0.7,
(PID.TID 0000.0001) > SEAICE_tensilFac = 0.05,
(PID.TID 0000.0001) > /
(PID.TID 0000.0001) >
(PID.TID 0000.0001) > &SEAICE_PARM03
(PID.TID 0000.0001) > /
(PID.TID 0000.0001) 
(PID.TID 0000.0001)  SEAICE_READPARMS: finished reading data.seaice
(PID.TID 0000.0001)  DIAGNOSTICS_READPARMS: opening data.diagnostics
(PID.TID 0000.0001)  OPEN_COPY_DATA_FILE: opening file data.diagnostics
(PID.TID 0000.0001) // =======================================================
(PID.TID 0000.0001) // Parameter file "data.diagnostics"
(PID.TID 0000.0001) // =======================================================
(PID.TID 0000.0001) ># Diagnostic Package Choices
(PID.TID 0000.0001) >#--------------------
(PID.TID 0000.0001) >#  dumpAtLast (logical): always write output at the end of simulation (default=F)
(PID.TID 0000.0001) >#  diag_mnc   (logical): write to NetCDF files (default=useMNC)
(PID.TID 0000.0001) >#--for each output-stream:
(PID.TID 0000.0001) >#  fileName(n) : prefix of the output file name (max 80c long) for outp.stream n
(PID.TID 0000.0001) >#  frequency(n):< 0 : write snap-shot output every |frequency| seconds
(PID.TID 0000.0001) >#               > 0 : write time-average output every frequency seconds
(PID.TID 0000.0001) >#  timePhase(n)     : write at time = timePhase + multiple of |frequency|
(PID.TID 0000.0001) >#    averagingFreq  : frequency (in s) for periodic averaging interval
(PID.TID 0000.0001) >#    averagingPhase : phase     (in s) for periodic averaging interval
(PID.TID 0000.0001) >#    repeatCycle    : number of averaging intervals in 1 cycle
(PID.TID 0000.0001) >#  levels(:,n) : list of levels to write to file (Notes: declared as REAL)
(PID.TID 0000.0001) >#                when this entry is missing, select all common levels of this list
(PID.TID 0000.0001) >#  fields(:,n) : list of selected diagnostics fields (8.c) in outp.stream
(PID.TID 0000.0001) >#                (see "available_diagnostics.log" file for the full list of diags)
(PID.TID 0000.0001) >#  missing_value(n) : missing value for real-type fields in output file "n"
(PID.TID 0000.0001) >#  fileFlags(n)     : specific code (8c string) for output file "n"
(PID.TID 0000.0001) >#--------------------
(PID.TID 0000.0001) ># This example dumps EXF diagnostics as snapshot after 10 time-steps
(PID.TID 0000.0001) ># Note: EXF air-sea fluxes over Sea-Ice are wrong
(PID.TID 0000.0001) > &DIAGNOSTICS_LIST
(PID.TID 0000.0001) >   dumpAtLast  = .TRUE.,
(PID.TID 0000.0001) >#--
(PID.TID 0000.0001) >#   fields(1:2,1) = 'EXFtaux ','EXFtauy ',
(PID.TID 0000.0001) >#  fields(1:11,1) = 'EXFtaux ','EXFtauy ','EXFqnet ','EXFempmr',
(PID.TID 0000.0001) >#                   'EXFhl   ','EXFhs   ','EXFswnet','EXFlwnet',
(PID.TID 0000.0001) >#                   'EXFuwind','EXFvwind','EXFatemp',
(PID.TID 0000.0001) >#   fileName(1) = 'exfDiag',
(PID.TID 0000.0001) >#   frequency(1) = 1.0,
(PID.TID 0000.0001) >
(PID.TID 0000.0001) >  fields(1:10,2) ='SIsig11 ','SIsig22 ',
(PID.TID 0000.0001) >                  'SIuice  ','SIvice  ',
(PID.TID 0000.0001) >                  'SIarea  ','SIheff  ',
(PID.TID 0000.0001) >                  'SIeps11 ','SIeps22 ',
(PID.TID 0000.0001) >                  'SIsig12 ','SIeps12 ',
(PID.TID 0000.0001) >   fileName(2) = 'iceDiag',
(PID.TID 0000.0001) >  frequency(2) =  0.1,
(PID.TID 0000.0001) ># missing_value(2) = -999.,
(PID.TID 0000.0001) > /
(PID.TID 0000.0001) >
(PID.TID 0000.0001) >#--------------------
(PID.TID 0000.0001) ># Parameter for Diagnostics of per level statistics:
(PID.TID 0000.0001) >#--------------------
(PID.TID 0000.0001) >#  diagSt_mnc (logical): write stat-diags to NetCDF files (default=diag_mnc)
(PID.TID 0000.0001) >#  diagSt_regMaskFile : file containing the region-mask to read-in
(PID.TID 0000.0001) >#  nSetRegMskFile   : number of region-mask sets within the region-mask file
(PID.TID 0000.0001) >#  set_regMask(i)   : region-mask set-index that identifies the region "i"
(PID.TID 0000.0001) >#  val_regMask(i)   : region "i" identifier value in the region mask
(PID.TID 0000.0001) >#--for each output-stream:
(PID.TID 0000.0001) >#  stat_fName(n) : prefix of the output file name (max 80c long) for outp.stream n
(PID.TID 0000.0001) >#  stat_freq(n):< 0 : write snap-shot output every |stat_freq| seconds
(PID.TID 0000.0001) >#               > 0 : write time-average output every stat_freq seconds
(PID.TID 0000.0001) >#  stat_phase(n)    : write at time = stat_phase + multiple of |stat_freq|
(PID.TID 0000.0001) >#  stat_region(:,n) : list of "regions" (default: 1 region only=global)
(PID.TID 0000.0001) >#  stat_fields(:,n) : list of selected diagnostics fields (8.c) in outp.stream n
(PID.TID 0000.0001) >#                (see "available_diagnostics.log" file for the full list of diags)
(PID.TID 0000.0001) >#--------------------
(PID.TID 0000.0001) > &DIAG_STATIS_PARMS
(PID.TID 0000.0001) >#stat_fields(1:12,1) = 'SIarea  ','SIheff  ','SIhsnow ',
(PID.TID 0000.0001) >#                      'oceFWflx','oceSflux','oceQnet ',
(PID.TID 0000.0001) >#                      'SItices ','SIatmFW ','SIatmQnt',
(PID.TID 0000.0001) >#                      'SIempmr ','SIqnet  ','SIqsw   ',
(PID.TID 0000.0001) >#                      'oceQsw  ',
(PID.TID 0000.0001) ># stat_fName(1) = 'iceStDiag',
(PID.TID 0000.0001) >#  stat_freq(1) = 7200.,
(PID.TID 0000.0001) ># stat_phase(1) = 1800.,
(PID.TID 0000.0001) >#stat_fields(1:14,1) = 'SI_Fract','SI_Thick','THETA   ',
(PID.TID 0000.0001) >#                      'SI_Tsrf ','SI_Tice1','SI_Tice2',
(PID.TID 0000.0001) >#                      'SIflx2oc','SIfrw2oc','SIsaltFx',
(PID.TID 0000.0001) >#                      'SIflxAtm','SIfrwAtm','SI_SnowH',
(PID.TID 0000.0001) >#                      'SIuice  ','SIvice  ',
(PID.TID 0000.0001) > /
(PID.TID 0000.0001) 
(PID.TID 0000.0001) S/R DIAGNOSTICS_READPARMS, read namelist "diagnostics_list": start
(PID.TID 0000.0001) S/R DIAGNOSTICS_READPARMS, read namelist "diagnostics_list": OK
(PID.TID 0000.0001) S/R DIAGNOSTICS_READPARMS, read namelist "DIAG_STATIS_PARMS": start
(PID.TID 0000.0001) S/R DIAGNOSTICS_READPARMS, read namelist "DIAG_STATIS_PARMS": OK
(PID.TID 0000.0001)  DIAGNOSTICS_READPARMS: global parameter summary:
(PID.TID 0000.0001)  dumpAtLast = /* always write time-ave diags at the end */
(PID.TID 0000.0001)                   T
(PID.TID 0000.0001)     ;
(PID.TID 0000.0001)  diag_mnc =   /* write NetCDF output files */
(PID.TID 0000.0001)                   F
(PID.TID 0000.0001)     ;
(PID.TID 0000.0001)  useMissingValue = /* put MissingValue where mask = 0 */
(PID.TID 0000.0001)                   F
(PID.TID 0000.0001)     ;
(PID.TID 0000.0001)  diagCG_maxIters = /* max number of iters in diag_cg2d */
(PID.TID 0000.0001)                     500
(PID.TID 0000.0001)     ;
(PID.TID 0000.0001)  diagCG_resTarget = /* residual target for diag_cg2d */
(PID.TID 0000.0001)                 1.000000000000000E-12
(PID.TID 0000.0001)     ;
(PID.TID 0000.0001)  diagCG_pcOffDFac = /* preconditioner off-diagonal factor */
(PID.TID 0000.0001)                 9.611687812379854E-01
(PID.TID 0000.0001)     ;
(PID.TID 0000.0001) -----------------------------------------------------
(PID.TID 0000.0001)  DIAGNOSTICS_READPARMS: active diagnostics summary:
(PID.TID 0000.0001) -----------------------------------------------------
(PID.TID 0000.0001) Creating Output Stream: iceDiag
(PID.TID 0000.0001) Output Frequency:          0.100000 ; Phase:           0.000000
(PID.TID 0000.0001)  Averaging Freq.:          0.100000 , Phase:           0.000000 , Cycle:   1
(PID.TID 0000.0001)  missing value: -9.990000000000E+02
(PID.TID 0000.0001)  Levels:    will be set later
(PID.TID 0000.0001)  Fields:    SIsig11  SIsig22  SIuice   SIvice   SIarea   SIheff   SIeps11  SIeps22  SIsig12  SIeps12
(PID.TID 0000.0001) -----------------------------------------------------
(PID.TID 0000.0001)  DIAGNOSTICS_READPARMS: statistics diags. summary:
(PID.TID 0000.0001) -----------------------------------------------------
(PID.TID 0000.0001) 
(PID.TID 0000.0001) SET_PARMS: done
(PID.TID 0000.0001) Enter INI_VERTICAL_GRID: setInterFDr=    T ; setCenterDr=    F
(PID.TID 0000.0001) %MON XC_max                       =   9.8750000000000E+03
(PID.TID 0000.0001) %MON XC_min                       =   1.2500000000000E+02
(PID.TID 0000.0001) %MON XC_mean                      =   5.0000000000000E+03
(PID.TID 0000.0001) %MON XC_sd                        =   2.8858490951538E+03
(PID.TID 0000.0001) %MON XG_max                       =   9.7500000000000E+03
(PID.TID 0000.0001) %MON XG_min                       =   0.0000000000000E+00
(PID.TID 0000.0001) %MON XG_mean                      =   4.8750000000000E+03
(PID.TID 0000.0001) %MON XG_sd                        =   2.8858490951538E+03
(PID.TID 0000.0001) %MON DXC_max                      =   2.5000000000000E+02
(PID.TID 0000.0001) %MON DXC_min                      =   2.5000000000000E+02
(PID.TID 0000.0001) %MON DXC_mean                     =   2.5000000000000E+02
(PID.TID 0000.0001) %MON DXC_sd                       =   0.0000000000000E+00
(PID.TID 0000.0001) %MON DXF_max                      =   2.5000000000000E+02
(PID.TID 0000.0001) %MON DXF_min                      =   2.5000000000000E+02
(PID.TID 0000.0001) %MON DXF_mean                     =   2.5000000000000E+02
(PID.TID 0000.0001) %MON DXF_sd                       =   0.0000000000000E+00
(PID.TID 0000.0001) %MON DXG_max                      =   2.5000000000000E+02
(PID.TID 0000.0001) %MON DXG_min                      =   2.5000000000000E+02
(PID.TID 0000.0001) %MON DXG_mean                     =   2.5000000000000E+02
(PID.TID 0000.0001) %MON DXG_sd                       =   0.0000000000000E+00
(PID.TID 0000.0001) %MON DXV_max                      =   2.5000000000000E+02
(PID.TID 0000.0001) %MON DXV_min                      =   2.5000000000000E+02
(PID.TID 0000.0001) %MON DXV_mean                     =   2.5000000000000E+02
(PID.TID 0000.0001) %MON DXV_sd                       =   0.0000000000000E+00
(PID.TID 0000.0001) %MON YC_max                       =   2.4875000000000E+04
(PID.TID 0000.0001) %MON YC_min                       =   1.2500000000000E+02
(PID.TID 0000.0001) %MON YC_mean                      =   1.2500000000000E+04
(PID.TID 0000.0001) %MON YC_sd                        =   7.2165175119305E+03
(PID.TID 0000.0001) %MON YG_max                       =   2.4750000000000E+04
(PID.TID 0000.0001) %MON YG_min                       =   0.0000000000000E+00
(PID.TID 0000.0001) %MON YG_mean                      =   1.2375000000000E+04
(PID.TID 0000.0001) %MON YG_sd                        =   7.2165175119305E+03
(PID.TID 0000.0001) %MON DYC_max                      =   2.5000000000000E+02
(PID.TID 0000.0001) %MON DYC_min                      =   2.5000000000000E+02
(PID.TID 0000.0001) %MON DYC_mean                     =   2.5000000000000E+02
(PID.TID 0000.0001) %MON DYC_sd                       =   0.0000000000000E+00
(PID.TID 0000.0001) %MON DYF_max                      =   2.5000000000000E+02
(PID.TID 0000.0001) %MON DYF_min                      =   2.5000000000000E+02
(PID.TID 0000.0001) %MON DYF_mean                     =   2.5000000000000E+02
(PID.TID 0000.0001) %MON DYF_sd                       =   0.0000000000000E+00
(PID.TID 0000.0001) %MON DYG_max                      =   2.5000000000000E+02
(PID.TID 0000.0001) %MON DYG_min                      =   2.5000000000000E+02
(PID.TID 0000.0001) %MON DYG_mean                     =   2.5000000000000E+02
(PID.TID 0000.0001) %MON DYG_sd                       =   0.0000000000000E+00
(PID.TID 0000.0001) %MON DYU_max                      =   2.5000000000000E+02
(PID.TID 0000.0001) %MON DYU_min                      =   2.5000000000000E+02
(PID.TID 0000.0001) %MON DYU_mean                     =   2.5000000000000E+02
(PID.TID 0000.0001) %MON DYU_sd                       =   0.0000000000000E+00
(PID.TID 0000.0001) %MON RA_max                       =   6.2500000000000E+04
(PID.TID 0000.0001) %MON RA_min                       =   6.2500000000000E+04
(PID.TID 0000.0001) %MON RA_mean                      =   6.2500000000000E+04
(PID.TID 0000.0001) %MON RA_sd                        =   0.0000000000000E+00
(PID.TID 0000.0001) %MON RAW_max                      =   6.2500000000000E+04
(PID.TID 0000.0001) %MON RAW_min                      =   6.2500000000000E+04
(PID.TID 0000.0001) %MON RAW_mean                     =   6.2500000000000E+04
(PID.TID 0000.0001) %MON RAW_sd                       =   0.0000000000000E+00
(PID.TID 0000.0001) %MON RAS_max                      =   6.2500000000000E+04
(PID.TID 0000.0001) %MON RAS_min                      =   6.2500000000000E+04
(PID.TID 0000.0001) %MON RAS_mean                     =   6.2500000000000E+04
(PID.TID 0000.0001) %MON RAS_sd                       =   0.0000000000000E+00
(PID.TID 0000.0001) %MON RAZ_max                      =   6.2500000000000E+04
(PID.TID 0000.0001) %MON RAZ_min                      =   6.2500000000000E+04
(PID.TID 0000.0001) %MON RAZ_mean                     =   6.2500000000000E+04
(PID.TID 0000.0001) %MON RAZ_sd                       =   0.0000000000000E+00
(PID.TID 0000.0001) %MON AngleCS_max                  =   1.0000000000000E+00
(PID.TID 0000.0001) %MON AngleCS_min                  =   1.0000000000000E+00
(PID.TID 0000.0001) %MON AngleCS_mean                 =   1.0000000000000E+00
(PID.TID 0000.0001) %MON AngleCS_sd                   =   0.0000000000000E+00
(PID.TID 0000.0001) %MON AngleSN_max                  =   0.0000000000000E+00
(PID.TID 0000.0001) %MON AngleSN_min                  =   0.0000000000000E+00
(PID.TID 0000.0001) %MON AngleSN_mean                 =   0.0000000000000E+00
(PID.TID 0000.0001) %MON AngleSN_sd                   =   0.0000000000000E+00
(PID.TID 0000.0001)  MDS_READ_FIELD: opening global file: bathy_DMcomp.bin
(PID.TID 0000.0001) // =======================================================
(PID.TID 0000.0001) // Field Model R_low (ini_masks_etc)
(PID.TID 0000.0001) // CMIN =         -2.000000000000000E+02
(PID.TID 0000.0001) // CMAX =         -2.000000000000000E+02
(PID.TID 0000.0001) // CINT =          0.000000000000000E+00
(PID.TID 0000.0001) // SYMBOLS (CMIN->CMAX): -abcdefghijklmnopqrstuvwxyz+
(PID.TID 0000.0001) //                  0.0: .
(PID.TID 0000.0001) // RANGE I (Lo:Hi:Step):(    -2:    43:     1)
(PID.TID 0000.0001) // RANGE J (Lo:Hi:Step):(   103:    -2:    -1)
(PID.TID 0000.0001) // RANGE K (Lo:Hi:Step):(   1:   1:   1)
(PID.TID 0000.0001) // =======================================================
(PID.TID 0000.0001) // =======================================================
(PID.TID 0000.0001) // END OF FIELD                                          =
(PID.TID 0000.0001) // =======================================================
(PID.TID 0000.0001) 
(PID.TID 0000.0001) // =======================================================
(PID.TID 0000.0001) // Field Model Ro_surf (ini_masks_etc)
(PID.TID 0000.0001) // CMIN =          1.000000000000000E+32
(PID.TID 0000.0001) // CMAX =         -1.000000000000000E+32
(PID.TID 0000.0001) // CINT =          0.000000000000000E+00
(PID.TID 0000.0001) // SYMBOLS (CMIN->CMAX): -abcdefghijklmnopqrstuvwxyz+
(PID.TID 0000.0001) //                  0.0: .
(PID.TID 0000.0001) // RANGE I (Lo:Hi:Step):(    -2:    43:     1)
(PID.TID 0000.0001) // RANGE J (Lo:Hi:Step):(   103:    -2:    -1)
(PID.TID 0000.0001) // RANGE K (Lo:Hi:Step):(   1:   1:   1)
(PID.TID 0000.0001) // =======================================================
(PID.TID 0000.0001) // =======================================================
(PID.TID 0000.0001) // END OF FIELD                                          =
(PID.TID 0000.0001) // =======================================================
(PID.TID 0000.0001) 
(PID.TID 0000.0001) // =======================================================
(PID.TID 0000.0001) // Field hFacC at iteration          0
(PID.TID 0000.0001) // CMIN =          1.000000000000000E+00
(PID.TID 0000.0001) // CMAX =          1.000000000000000E+00
(PID.TID 0000.0001) // CINT =          0.000000000000000E+00
(PID.TID 0000.0001) // SYMBOLS (CMIN->CMAX): -abcdefghijklmnopqrstuvwxyz+
(PID.TID 0000.0001) //                  0.0: .
(PID.TID 0000.0001) // RANGE I (Lo:Hi:Step):(    -2:    43:     1)
(PID.TID 0000.0001) // RANGE J (Lo:Hi:Step):(   103:    -2:    -1)
(PID.TID 0000.0001) // RANGE K (Lo:Hi:Step):(   1:   1:   1)
(PID.TID 0000.0001) // =======================================================
(PID.TID 0000.0001) // =======================================================
(PID.TID 0000.0001) // END OF FIELD                                          =
(PID.TID 0000.0001) // =======================================================
(PID.TID 0000.0001) 
(PID.TID 0000.0001) // =======================================================
(PID.TID 0000.0001) // Field hFacW at iteration          0
(PID.TID 0000.0001) // CMIN =          1.000000000000000E+00
(PID.TID 0000.0001) // CMAX =          1.000000000000000E+00
(PID.TID 0000.0001) // CINT =          0.000000000000000E+00
(PID.TID 0000.0001) // SYMBOLS (CMIN->CMAX): -abcdefghijklmnopqrstuvwxyz+
(PID.TID 0000.0001) //                  0.0: .
(PID.TID 0000.0001) // RANGE I (Lo:Hi:Step):(    -2:    43:     1)
(PID.TID 0000.0001) // RANGE J (Lo:Hi:Step):(   103:    -2:    -1)
(PID.TID 0000.0001) // RANGE K (Lo:Hi:Step):(   1:   1:   1)
(PID.TID 0000.0001) // =======================================================
(PID.TID 0000.0001) // =======================================================
(PID.TID 0000.0001) // END OF FIELD                                          =
(PID.TID 0000.0001) // =======================================================
(PID.TID 0000.0001) 
(PID.TID 0000.0001) // =======================================================
(PID.TID 0000.0001) // Field hFacS at iteration          0
(PID.TID 0000.0001) // CMIN =          1.000000000000000E+00
(PID.TID 0000.0001) // CMAX =          1.000000000000000E+00
(PID.TID 0000.0001) // CINT =          0.000000000000000E+00
(PID.TID 0000.0001) // SYMBOLS (CMIN->CMAX): -abcdefghijklmnopqrstuvwxyz+
(PID.TID 0000.0001) //                  0.0: .
(PID.TID 0000.0001) // RANGE I (Lo:Hi:Step):(    -2:    43:     1)
(PID.TID 0000.0001) // RANGE J (Lo:Hi:Step):(   103:    -2:    -1)
(PID.TID 0000.0001) // RANGE K (Lo:Hi:Step):(   1:   1:   1)
(PID.TID 0000.0001) // =======================================================
(PID.TID 0000.0001) // =======================================================
(PID.TID 0000.0001) // END OF FIELD                                          =
(PID.TID 0000.0001) // =======================================================
(PID.TID 0000.0001) 
(PID.TID 0000.0001) GAD_INIT_FIXED: GAD_OlMinSize=  0  0  1
(PID.TID 0000.0001) 
(PID.TID 0000.0001) // ===================================
(PID.TID 0000.0001) // GAD parameters :
(PID.TID 0000.0001) // ===================================
(PID.TID 0000.0001) tempAdvScheme =   /* Temp. Horiz.Advection scheme selector */
(PID.TID 0000.0001)                       2
(PID.TID 0000.0001)     ;
(PID.TID 0000.0001) tempVertAdvScheme =   /* Temp. Vert. Advection scheme selector */
(PID.TID 0000.0001)                       2
(PID.TID 0000.0001)     ;
(PID.TID 0000.0001) tempMultiDimAdvec =   /* use Muti-Dim Advec method for Temp */
(PID.TID 0000.0001)                   F
(PID.TID 0000.0001)     ;
(PID.TID 0000.0001) tempSOM_Advection = /* use 2nd Order Moment Advection for Temp */
(PID.TID 0000.0001)                   F
(PID.TID 0000.0001)     ;
(PID.TID 0000.0001) AdamsBashforthGt = /* apply Adams-Bashforth extrapolation on Gt */
(PID.TID 0000.0001)                   F
(PID.TID 0000.0001)     ;
(PID.TID 0000.0001) AdamsBashforth_T = /* apply Adams-Bashforth extrapolation on Temp */
(PID.TID 0000.0001)                   F
(PID.TID 0000.0001)     ;
(PID.TID 0000.0001) saltAdvScheme =   /* Salt. Horiz.advection scheme selector */
(PID.TID 0000.0001)                       2
(PID.TID 0000.0001)     ;
(PID.TID 0000.0001) saltVertAdvScheme =   /* Salt. Vert. Advection scheme selector */
(PID.TID 0000.0001)                       2
(PID.TID 0000.0001)     ;
(PID.TID 0000.0001) saltMultiDimAdvec =   /* use Muti-Dim Advec method for Salt */
(PID.TID 0000.0001)                   F
(PID.TID 0000.0001)     ;
(PID.TID 0000.0001) saltSOM_Advection = /* use 2nd Order Moment Advection for Salt */
(PID.TID 0000.0001)                   F
(PID.TID 0000.0001)     ;
(PID.TID 0000.0001) AdamsBashforthGs = /* apply Adams-Bashforth extrapolation on Gs */
(PID.TID 0000.0001)                   F
(PID.TID 0000.0001)     ;
(PID.TID 0000.0001) AdamsBashforth_S = /* apply Adams-Bashforth extrapolation on Salt */
(PID.TID 0000.0001)                   F
(PID.TID 0000.0001)     ;
(PID.TID 0000.0001) // ===================================
(PID.TID 0000.0001) 
(PID.TID 0000.0001) // =======================================================
(PID.TID 0000.0001) // External forcing (EXF) configuration >>> START <<<
(PID.TID 0000.0001) // =======================================================
(PID.TID 0000.0001) 
(PID.TID 0000.0001)  EXF general parameters:
(PID.TID 0000.0001) 
(PID.TID 0000.0001) exf_iprec = /* exf file precision */
(PID.TID 0000.0001)                      64
(PID.TID 0000.0001)     ;
(PID.TID 0000.0001) useExfYearlyFields = /* add extension _YEAR to input file names */
(PID.TID 0000.0001)                   F
(PID.TID 0000.0001)     ;
(PID.TID 0000.0001) twoDigitYear = /* use 2-digit year extension */
(PID.TID 0000.0001)                   F
(PID.TID 0000.0001)     ;
(PID.TID 0000.0001) useExfCheckRange = /* check for fields range */
(PID.TID 0000.0001)                   T
(PID.TID 0000.0001)     ;
(PID.TID 0000.0001) exf_debugLev = /* select EXF-debug printing level */
(PID.TID 0000.0001)                       2
(PID.TID 0000.0001)     ;
(PID.TID 0000.0001) exf_monFreq  = /* EXF monitor frequency [ s ] */
(PID.TID 0000.0001)                 8.640000000000000E+07
(PID.TID 0000.0001)     ;
(PID.TID 0000.0001) repeatPeriod = /* period for cycling forcing dataset [ s ] */
(PID.TID 0000.0001)                 0.000000000000000E+00
(PID.TID 0000.0001)     ;
(PID.TID 0000.0001) climTempFreeze= /* Minimum climatological temperature [deg.C] */
(PID.TID 0000.0001)                -1.900000000000000E+00
(PID.TID 0000.0001)     ;
(PID.TID 0000.0001) windStressMax = /* Maximum absolute windstress [ Pa ] */
(PID.TID 0000.0001)                 2.000000000000000E+00
(PID.TID 0000.0001)     ;
(PID.TID 0000.0001) stressIsOnCgrid = /* set u,v_stress on Arakawa C-grid */
(PID.TID 0000.0001)                   F
(PID.TID 0000.0001)     ;
(PID.TID 0000.0001) rotateStressOnAgrid = /* rotate u,v_stress on Arakawa A-grid */
(PID.TID 0000.0001)                   F
(PID.TID 0000.0001)     ;
(PID.TID 0000.0001) cen2kel = /* conversion of deg. Centigrade to Kelvin [K] */
(PID.TID 0000.0001)                 2.731500000000000E+02
(PID.TID 0000.0001)     ;
(PID.TID 0000.0001) gravity_mks= /* gravitational acceleration [m/s^2] */
(PID.TID 0000.0001)                 9.810000000000000E+00
(PID.TID 0000.0001)     ;
(PID.TID 0000.0001) atmrho =  /* mean atmospheric density [kg/m^3] */
(PID.TID 0000.0001)                 1.200000000000000E+00
(PID.TID 0000.0001)     ;
(PID.TID 0000.0001) atmcp =  /* mean atmospheric specific heat [J/kg/K] */
(PID.TID 0000.0001)                 1.005000000000000E+03
(PID.TID 0000.0001)     ;
(PID.TID 0000.0001) flamb =  /* latent heat of evaporation [J/kg] */
(PID.TID 0000.0001)                 2.500000000000000E+06
(PID.TID 0000.0001)     ;
(PID.TID 0000.0001) flami =  /* latent heat of pure-ice melting [J/kg] */
(PID.TID 0000.0001)                 3.340000000000000E+05
(PID.TID 0000.0001)     ;
(PID.TID 0000.0001) cvapor_fac = /* const. for Saturation calculation [?] */
(PID.TID 0000.0001)                 6.403800000000000E+05
(PID.TID 0000.0001)     ;
(PID.TID 0000.0001) cvapor_exp = /* const. for Saturation calculation [?] */
(PID.TID 0000.0001)                 5.107400000000000E+03
(PID.TID 0000.0001)     ;
(PID.TID 0000.0001) cvapor_fac_ice= /* const. for Saturation calculation [?] */
(PID.TID 0000.0001)                 1.163780000000000E+07
(PID.TID 0000.0001)     ;
(PID.TID 0000.0001) cvapor_exp_ice= /* const. for Saturation calculation [?] */
(PID.TID 0000.0001)                 5.897800000000000E+03
(PID.TID 0000.0001)     ;
(PID.TID 0000.0001) humid_fac = /* humidity coef. in virtual temp. [(kg/kg)^-1] */
(PID.TID 0000.0001)                 6.060000000000000E-01
(PID.TID 0000.0001)     ;
(PID.TID 0000.0001) gamma_blk = /* adiabatic lapse rate [?] */
(PID.TID 0000.0001)                 1.000000000000000E-02
(PID.TID 0000.0001)     ;
(PID.TID 0000.0001) saltsat = /* reduction of Qsat over salty water [-] */
(PID.TID 0000.0001)                 9.800000000000000E-01
(PID.TID 0000.0001)     ;
(PID.TID 0000.0001) noNegativeEvap = /* prevent negative Evaporation */
(PID.TID 0000.0001)                   F
(PID.TID 0000.0001)     ;
(PID.TID 0000.0001) sstExtrapol = /* extrapolation coeff from lev. 1 & 2 to surf [-] */
(PID.TID 0000.0001)                 0.000000000000000E+00
(PID.TID 0000.0001)     ;
(PID.TID 0000.0001) cDrag_1 = /* coef used in drag calculation [?] */
(PID.TID 0000.0001)                 2.700000000000000E-03
(PID.TID 0000.0001)     ;
(PID.TID 0000.0001) cDrag_2 = /* coef used in drag calculation [?] */
(PID.TID 0000.0001)                 1.420000000000000E-04
(PID.TID 0000.0001)     ;
(PID.TID 0000.0001) cDrag_3 = /* coef used in drag calculation [?] */
(PID.TID 0000.0001)                 7.640000000000000E-05
(PID.TID 0000.0001)     ;
(PID.TID 0000.0001) cStanton_1 = /* coef used in Stanton number calculation [?] */
(PID.TID 0000.0001)                 3.270000000000000E-02
(PID.TID 0000.0001)     ;
(PID.TID 0000.0001) cStanton_2 = /* coef used in Stanton number calculation [?] */
(PID.TID 0000.0001)                 1.800000000000000E-02
(PID.TID 0000.0001)     ;
(PID.TID 0000.0001) cDalton = /* coef used in Dalton number calculation [?] */
(PID.TID 0000.0001)                 3.460000000000000E-02
(PID.TID 0000.0001)     ;
(PID.TID 0000.0001) exf_scal_BulkCdn= /* Drag coefficient scaling factor [-] */
(PID.TID 0000.0001)                 1.000000000000000E+00
(PID.TID 0000.0001)     ;
(PID.TID 0000.0001) zolmin = /* minimum stability parameter [?] */
(PID.TID 0000.0001)                -1.000000000000000E+02
(PID.TID 0000.0001)     ;
(PID.TID 0000.0001) psim_fac = /* coef used in turbulent fluxes calculation [-] */
(PID.TID 0000.0001)                 5.000000000000000E+00
(PID.TID 0000.0001)     ;
(PID.TID 0000.0001) zref =  /* reference height [ m ] */
(PID.TID 0000.0001)                 1.000000000000000E+01
(PID.TID 0000.0001)     ;
(PID.TID 0000.0001) hu =  /* height of mean wind [ m ] */
(PID.TID 0000.0001)                 1.000000000000000E+01
(PID.TID 0000.0001)     ;
(PID.TID 0000.0001) ht =  /* height of mean temperature [ m ] */
(PID.TID 0000.0001)                 2.000000000000000E+00
(PID.TID 0000.0001)     ;
(PID.TID 0000.0001) hq =  /* height of mean spec.humidity [ m ] */
(PID.TID 0000.0001)                 2.000000000000000E+00
(PID.TID 0000.0001)     ;
(PID.TID 0000.0001) uMin = /* minimum wind speed [m/s] */
(PID.TID 0000.0001)                 5.000000000000000E-01
(PID.TID 0000.0001)     ;
(PID.TID 0000.0001) useStabilityFct_overIce= /* transfert Coeffs over sea-ice depend on stability */
(PID.TID 0000.0001)                   F
(PID.TID 0000.0001)     ;
(PID.TID 0000.0001) exf_iceCd = /* drag coefficient over sea-ice (fixed) [-] */
(PID.TID 0000.0001)                 1.630000000000000E-03
(PID.TID 0000.0001)     ;
(PID.TID 0000.0001) exf_iceCe = /* transfert coeff. over sea-ice, for Evap (fixed) [-] */
(PID.TID 0000.0001)                 1.630000000000000E-03
(PID.TID 0000.0001)     ;
(PID.TID 0000.0001) exf_iceCh = /* transfert coeff. over sea-ice, Sens.Heat.(fixed)[-] */
(PID.TID 0000.0001)                 1.630000000000000E-03
(PID.TID 0000.0001)     ;
(PID.TID 0000.0001) exf_albedo =  /* Sea-water albedo [-] */
(PID.TID 0000.0001)                 1.000000000000000E-01
(PID.TID 0000.0001)     ;
(PID.TID 0000.0001) useExfZenAlbedo = /* Sea-water albedo varies with zenith angle */
(PID.TID 0000.0001)                   F
(PID.TID 0000.0001)     ;
(PID.TID 0000.0001) select_ZenAlbedo = /* Sea-water albedo computation method */
(PID.TID 0000.0001)                       0
(PID.TID 0000.0001)     ;
(PID.TID 0000.0001) useExfZenIncoming = /* compute incoming solar radiation */
(PID.TID 0000.0001)                   F
(PID.TID 0000.0001)     ;
(PID.TID 0000.0001) ocean_emissivity = /* longwave ocean-surface emissivity [-] */
(PID.TID 0000.0001)                 9.700176366843034E-01
(PID.TID 0000.0001)     ;
(PID.TID 0000.0001) ice_emissivity = /* longwave seaice emissivity [-] */
(PID.TID 0000.0001)                 9.500000000000000E-01
(PID.TID 0000.0001)     ;
(PID.TID 0000.0001) snow_emissivity = /* longwave snow  emissivity [-] */
(PID.TID 0000.0001)                 9.500000000000000E-01
(PID.TID 0000.0001)     ;
(PID.TID 0000.0001) 
(PID.TID 0000.0001)  EXF main CPP flags:
(PID.TID 0000.0001) 
(PID.TID 0000.0001) // USE_EXF_INTERPOLATION:          NOT defined
(PID.TID 0000.0001) // ALLOW_ATM_TEMP:                 NOT defined
(PID.TID 0000.0001) // ALLOW_ATM_WIND (useAtmWind):    NOT defined
(PID.TID 0000.0001) // ALLOW_DOWNWARD_RADIATION:       NOT defined
(PID.TID 0000.0001) // ALLOW_BULKFORMULAE:             NOT defined
(PID.TID 0000.0001) // EXF_READ_EVAP:                  NOT defined
(PID.TID 0000.0001) // ALLOW_RUNOFF:                   NOT defined
(PID.TID 0000.0001) // ALLOW_SALTFLX:                  NOT defined
(PID.TID 0000.0001) 
(PID.TID 0000.0001) // =======================================================
(PID.TID 0000.0001) // External forcing (EXF) climatology configuration :
(PID.TID 0000.0001) // =======================================================
(PID.TID 0000.0001) 
(PID.TID 0000.0001) // ALLOW_CLIMSST_RELAXATION:       NOT defined
(PID.TID 0000.0001) 
(PID.TID 0000.0001) // ALLOW_CLIMSSS_RELAXATION:       NOT defined
(PID.TID 0000.0001) 
(PID.TID 0000.0001) // =======================================================
(PID.TID 0000.0001) // External forcing (EXF) configuration  >>> END <<<
(PID.TID 0000.0001) // =======================================================
(PID.TID 0000.0001) 
(PID.TID 0000.0001) // =======================================================
(PID.TID 0000.0001) // Seaice configuration (SEAICE_PARM01) >>> START <<<
(PID.TID 0000.0001) // =======================================================
(PID.TID 0000.0001) 
(PID.TID 0000.0001)    Seaice time stepping configuration   > START <
(PID.TID 0000.0001)    ----------------------------------------------
(PID.TID 0000.0001) SEAICE_deltaTtherm= /* thermodynamic timestep */
(PID.TID 0000.0001)                 1.000000000000000E-01
(PID.TID 0000.0001)     ;
(PID.TID 0000.0001) SEAICE_deltaTdyn  = /* dynamic timestep */
(PID.TID 0000.0001)                 1.000000000000000E-01
(PID.TID 0000.0001)     ;
(PID.TID 0000.0001) SEAICEuseBDF2  = /* use backw. differencing for mom. eq. */
(PID.TID 0000.0001)                   F
(PID.TID 0000.0001)     ;
(PID.TID 0000.0001) SEAICEupdateOceanStress= /* update Ocean surf. stress */
(PID.TID 0000.0001)                   T
(PID.TID 0000.0001)     ;
(PID.TID 0000.0001) SEAICErestoreUnderIce  = /* restore T and S under ice */
(PID.TID 0000.0001)                   T
(PID.TID 0000.0001)     ;
(PID.TID 0000.0001) 
(PID.TID 0000.0001)    Seaice dynamics configuration   > START <
(PID.TID 0000.0001)    ------------------------------------------
(PID.TID 0000.0001) SEAICEuseDYNAMICS = /* use dynamics */
(PID.TID 0000.0001)                   T
(PID.TID 0000.0001)     ;
(PID.TID 0000.0001) model grid type   = /* type of sea ice model grid */
(PID.TID 0000.0001)               'C-GRID'
(PID.TID 0000.0001)     ;
(PID.TID 0000.0001) SEAICEuseStrImpCpl = /* use strongly implicit coupling */
(PID.TID 0000.0001)                   F
(PID.TID 0000.0001)     ;
(PID.TID 0000.0001) SEAICEusePicardAsPrecon = /* Picard as preconditioner */
(PID.TID 0000.0001)                   F
(PID.TID 0000.0001)     ;
(PID.TID 0000.0001) SEAICEuseLSR      = /* use default Picard-LSR solver */
(PID.TID 0000.0001)                   T
(PID.TID 0000.0001)     ;
(PID.TID 0000.0001) SEAICEuseKrylov   = /* use Picard-Krylov solver */
(PID.TID 0000.0001)                   F
(PID.TID 0000.0001)     ;
(PID.TID 0000.0001) SEAICEuseEVP      = /* use EVP solver rather than LSR */
(PID.TID 0000.0001)                   F
(PID.TID 0000.0001)     ;
(PID.TID 0000.0001) SEAICEuseJFNK     = /* use JFNK solver */
(PID.TID 0000.0001)                   F
(PID.TID 0000.0001)     ;
(PID.TID 0000.0001) OCEAN_drag        = /* air-ocean drag coefficient */
(PID.TID 0000.0001)                 8.154100000000000E-04
(PID.TID 0000.0001)     ;
(PID.TID 0000.0001) SEAICE_drag       = /* air-ice drag coefficient */
(PID.TID 0000.0001)                 1.000000000000000E-03
(PID.TID 0000.0001)     ;
(PID.TID 0000.0001) SEAICE_drag_south      = /* Southern Ocean SEAICE_drag */
(PID.TID 0000.0001)                 1.000000000000000E-03
(PID.TID 0000.0001)     ;
(PID.TID 0000.0001) SEAICE_waterDrag  = /* water-ice drag */
(PID.TID 0000.0001)                 5.500000000000000E-03
(PID.TID 0000.0001)     ;
(PID.TID 0000.0001) SEAICE_waterDrag_south = /* Southern Ocean waterDrag */
(PID.TID 0000.0001)                 5.500000000000000E-03
(PID.TID 0000.0001)     ;
(PID.TID 0000.0001) SEAICEuseTilt     = /* include surface tilt in dyna. */
(PID.TID 0000.0001)                   T
(PID.TID 0000.0001)     ;
(PID.TID 0000.0001) SEAICEuseTEM      = /* use truncated ellipse rheology */
(PID.TID 0000.0001)                   F
(PID.TID 0000.0001)     ;
(PID.TID 0000.0001) SEAICE_strength   = /* sea-ice strength Pstar */
(PID.TID 0000.0001)                 2.750000000000000E+04
(PID.TID 0000.0001)     ;
(PID.TID 0000.0001) SEAICE_cStar      = /* sea-ice strength parameter cStar */
(PID.TID 0000.0001)                 2.000000000000000E+01
(PID.TID 0000.0001)     ;
(PID.TID 0000.0001) SEAICEpressReplFac= /* press. replacement method factor */
(PID.TID 0000.0001)                 0.000000000000000E+00
(PID.TID 0000.0001)     ;
(PID.TID 0000.0001) SEAICE_tensilFac  = /* sea-ice tensile strength factor */
(PID.TID 0000.0001)                 5.000000000000000E-02
(PID.TID 0000.0001)     ;
(PID.TID 0000.0001) SEAICE_tensilDepth= /* crit. depth for tensile strength */
(PID.TID 0000.0001)                 0.000000000000000E+00
(PID.TID 0000.0001)     ;
(PID.TID 0000.0001) SEAICEpresH0   = /* sea-ice strength Heff threshold */
(PID.TID 0000.0001)                 1.000000000000000E+00
(PID.TID 0000.0001)     ;
(PID.TID 0000.0001) SEAICEpresPow0 = /* exponent for Heff<SEAICEpresH0 */
(PID.TID 0000.0001)                       1
(PID.TID 0000.0001)     ;
(PID.TID 0000.0001) SEAICEpresPow1 = /* exponent for Heff>SEAICEpresH0 */
(PID.TID 0000.0001)                       1
(PID.TID 0000.0001)     ;
(PID.TID 0000.0001) SEAICEetaZmethod = /* method computing eta at Z-point */
(PID.TID 0000.0001)                       3
(PID.TID 0000.0001)     ;
(PID.TID 0000.0001) SEAICE_zetaMin    = /* lower bound for viscosity */
(PID.TID 0000.0001)                 0.000000000000000E+00
(PID.TID 0000.0001)     ;
(PID.TID 0000.0001) SEAICE_eccen    = /* elliptical yield curve eccent */
(PID.TID 0000.0001)                 2.000000000000000E+00
(PID.TID 0000.0001)     ;
(PID.TID 0000.0001) SEAICEstressFactor    = /* wind stress scaling factor */
(PID.TID 0000.0001)                 1.000000000000000E+00
(PID.TID 0000.0001)     ;
(PID.TID 0000.0001) SEAICE_airTurnAngle    = /* air-ice turning angle */
(PID.TID 0000.0001)                 0.000000000000000E+00
(PID.TID 0000.0001)     ;
(PID.TID 0000.0001) SEAICE_waterTurnAngle  = /* ice-water turning angle */
(PID.TID 0000.0001)                 0.000000000000000E+00
(PID.TID 0000.0001)     ;
(PID.TID 0000.0001) SEAICEuseMetricTerms = /* use metric terms */
(PID.TID 0000.0001)                   T
(PID.TID 0000.0001)     ;
(PID.TID 0000.0001) SEAICE_no_slip    = /* no slip boundary conditions */
(PID.TID 0000.0001)                   T
(PID.TID 0000.0001)     ;
(PID.TID 0000.0001) SEAICE_2ndOrderBC = /* 2nd order no slip boundary conditions */
(PID.TID 0000.0001)                   F
(PID.TID 0000.0001)     ;
(PID.TID 0000.0001) SEAICE_clipVeloctities = /* impose max. vels. */
(PID.TID 0000.0001)                   F
(PID.TID 0000.0001)     ;
(PID.TID 0000.0001) useHB87stressCoupling  = /* altern. ice-ocean stress */
(PID.TID 0000.0001)                   F
(PID.TID 0000.0001)     ;
(PID.TID 0000.0001) SEAICEscaleSurfStress  = /* scale atm. and ocean-surface stress with AREA */
(PID.TID 0000.0001)                   T
(PID.TID 0000.0001)     ;
(PID.TID 0000.0001) SEAICE_maskRHS    = /* mask RHS of solver */
(PID.TID 0000.0001)                   F
(PID.TID 0000.0001)     ;
(PID.TID 0000.0001) SEAICEaddSnowMass = /* add snow mass to seaiceMassC/U/V */
(PID.TID 0000.0001)                   T
(PID.TID 0000.0001)     ;
(PID.TID 0000.0001) LSR_mixIniGuess = /* mix free-drift sol. into LSR initial Guess */
(PID.TID 0000.0001)                      -1
(PID.TID 0000.0001)     ;
(PID.TID 0000.0001) SEAICE_LSRrelaxU  = /* LSR solver: relaxation parameter */
(PID.TID 0000.0001)                 9.500000000000000E-01
(PID.TID 0000.0001)     ;
(PID.TID 0000.0001) SEAICE_LSRrelaxV  = /* LSR solver: relaxation parameter */
(PID.TID 0000.0001)                 9.500000000000000E-01
(PID.TID 0000.0001)     ;
(PID.TID 0000.0001) LSR_ERROR         = /* sets accuracy of LSR solver */
(PID.TID 0000.0001)                 9.999999999999999E-12
(PID.TID 0000.0001)     ;
(PID.TID 0000.0001) SOLV_NCHECK       = /* test interval for LSR solver */
(PID.TID 0000.0001)                       2
(PID.TID 0000.0001)     ;
(PID.TID 0000.0001) SEAICEuseMultiTileSolver = /* use full domain tri-diag solver */
(PID.TID 0000.0001)                   F
(PID.TID 0000.0001)     ;
(PID.TID 0000.0001) SEAICE_OLx = /* overlap for LSR/preconditioner */
(PID.TID 0000.0001)                       1
(PID.TID 0000.0001)     ;
(PID.TID 0000.0001) SEAICE_OLy = /* overlap for LSR/preconditioner */
(PID.TID 0000.0001)                       1
(PID.TID 0000.0001)     ;
(PID.TID 0000.0001) SEAICEnonLinIterMax = /* max. number of nonlinear solver steps */
(PID.TID 0000.0001)                      10
(PID.TID 0000.0001)     ;
(PID.TID 0000.0001) SEAICElinearIterMax = /* max. number of linear solver steps */
(PID.TID 0000.0001)                    1500
(PID.TID 0000.0001)     ;
(PID.TID 0000.0001) SEAICEnonLinTol     = /* non-linear solver tolerance */
(PID.TID 0000.0001)                 9.999999999999999E-12
(PID.TID 0000.0001)     ;
(PID.TID 0000.0001) 
(PID.TID 0000.0001)    Seaice advection diffusion config,   > START <
(PID.TID 0000.0001)    -----------------------------------------------
(PID.TID 0000.0001) SEAICEmomAdvection = /* advect sea ice momentum */
(PID.TID 0000.0001)                   F
(PID.TID 0000.0001)     ;
(PID.TID 0000.0001) SEAICEadvHeff = /* advect effective ice thickness */
(PID.TID 0000.0001)                   T
(PID.TID 0000.0001)     ;
(PID.TID 0000.0001) SEAICEadvArea = /* advect fractional ice area */
(PID.TID 0000.0001)                   T
(PID.TID 0000.0001)     ;
(PID.TID 0000.0001) SEAICEadvSnow = /* advect snow layer together with ice */
(PID.TID 0000.0001)                   T
(PID.TID 0000.0001)     ;
(PID.TID 0000.0001) SEAICEadvScheme   = /* advection scheme for ice */
(PID.TID 0000.0001)                      33
(PID.TID 0000.0001)     ;
(PID.TID 0000.0001) SEAICEadvSchArea   = /* advection scheme for area */
(PID.TID 0000.0001)                      33
(PID.TID 0000.0001)     ;
(PID.TID 0000.0001) SEAICEadvSchHeff   = /* advection scheme for thickness */
(PID.TID 0000.0001)                      33
(PID.TID 0000.0001)     ;
(PID.TID 0000.0001) SEAICEadvSchSnow   = /* advection scheme for snow */
(PID.TID 0000.0001)                      33
(PID.TID 0000.0001)     ;
(PID.TID 0000.0001) SEAICEdiffKhArea   = /* diffusivity (m^2/s) for area */
(PID.TID 0000.0001)                 0.000000000000000E+00
(PID.TID 0000.0001)     ;
(PID.TID 0000.0001) SEAICEdiffKhHeff   = /* diffusivity (m^2/s) for heff */
(PID.TID 0000.0001)                 0.000000000000000E+00
(PID.TID 0000.0001)     ;
(PID.TID 0000.0001) SEAICEdiffKhSnow   = /* diffusivity (m^2/s) for snow */
(PID.TID 0000.0001)                 0.000000000000000E+00
(PID.TID 0000.0001)     ;
(PID.TID 0000.0001) DIFF1             = /* parameter used in advect.F [m/s] */
(PID.TID 0000.0001)                 0.000000000000000E+00
(PID.TID 0000.0001)     ;
(PID.TID 0000.0001) 
(PID.TID 0000.0001)    Seaice thermodynamics configuration   > START <
(PID.TID 0000.0001)    -----------------------------------------------
(PID.TID 0000.0001) SEAICE_rhoIce     = /* density of sea ice (kg/m3) */
(PID.TID 0000.0001)                 9.100000000000000E+02
(PID.TID 0000.0001)     ;
(PID.TID 0000.0001) SEAICE_rhoSnow    = /* density of snow (kg/m3) */
(PID.TID 0000.0001)                 3.300000000000000E+02
(PID.TID 0000.0001)     ;
(PID.TID 0000.0001) SEAICE_rhoAir     = /* density of air (kg/m3) */
(PID.TID 0000.0001)                 1.200000000000000E+00
(PID.TID 0000.0001)     ;
(PID.TID 0000.0001) usePW79thermodynamics  = /* default 0-layer TD */
(PID.TID 0000.0001)                   F
(PID.TID 0000.0001)     ;
(PID.TID 0000.0001)    pkg/seaice thermodynamics is OFF
(PID.TID 0000.0001) 
(PID.TID 0000.0001)    Seaice initialization and IO config.,   > START <
(PID.TID 0000.0001)    -------------------------------------------------
(PID.TID 0000.0001) SEAICE_initialHEFF= /* initial sea-ice thickness */
(PID.TID 0000.0001)                 0.000000000000000E+00
(PID.TID 0000.0001)     ;
(PID.TID 0000.0001) AreaFile = /* Initial ice concentration File */
(PID.TID 0000.0001)               'ice0_area_DMcomp.bin'
(PID.TID 0000.0001)     ;
(PID.TID 0000.0001) HeffFile = /* Initial effective ice thickness File */
(PID.TID 0000.0001)               'ice0_heff_DMcomp.bin'
(PID.TID 0000.0001)     ;
(PID.TID 0000.0001) HsnowFile = /* Initial snow thickness File */
(PID.TID 0000.0001)               ''
(PID.TID 0000.0001)     ;
(PID.TID 0000.0001) uIceFile = /* Initial U-ice velocity File */
(PID.TID 0000.0001)               ''
(PID.TID 0000.0001)     ;
(PID.TID 0000.0001) vIceFile = /* Initial V-ice velocity File */
(PID.TID 0000.0001)               ''
(PID.TID 0000.0001)     ;
(PID.TID 0000.0001) SEAICEwriteState  = /* write sea ice state to file */
(PID.TID 0000.0001)                   T
(PID.TID 0000.0001)     ;
(PID.TID 0000.0001) SEAICE_monFreq  = /* monitor frequency */
(PID.TID 0000.0001)                 1.000000000000000E-01
(PID.TID 0000.0001)     ;
(PID.TID 0000.0001) SEAICE_dumpFreq   = /* dump frequency */
(PID.TID 0000.0001)                 0.000000000000000E+00
(PID.TID 0000.0001)     ;
(PID.TID 0000.0001) SEAICE_taveFreq   = /* time-averaging frequency */
(PID.TID 0000.0001)                 0.000000000000000E+00
(PID.TID 0000.0001)     ;
(PID.TID 0000.0001) SEAICE_mon_stdio  = /* write monitor to std-outp */
(PID.TID 0000.0001)                   T
(PID.TID 0000.0001)     ;
(PID.TID 0000.0001) SEAICE_dump_mdsio = /* write snap-shot   using MDSIO */
(PID.TID 0000.0001)                   T
(PID.TID 0000.0001)     ;
(PID.TID 0000.0001) SEAICE_tave_mdsio = /* write TimeAverage using MDSIO */
(PID.TID 0000.0001)                   T
(PID.TID 0000.0001)     ;
(PID.TID 0000.0001) SEAICE_mon_mnc    = /* write monitor to netcdf file */
(PID.TID 0000.0001)                   F
(PID.TID 0000.0001)     ;
(PID.TID 0000.0001) SEAICE_dump_mnc   = /* write snap-shot   using MNC */
(PID.TID 0000.0001)                   F
(PID.TID 0000.0001)     ;
(PID.TID 0000.0001) SEAICE_tave_mnc   = /* write TimeAverage using MNC */
(PID.TID 0000.0001)                   F
(PID.TID 0000.0001)     ;
(PID.TID 0000.0001) 
(PID.TID 0000.0001)    Seaice regularization numbers,   > START <
(PID.TID 0000.0001)    -----------------------------------------------
(PID.TID 0000.0001) SEAICE_deltaMin   = /* reduce singularities in Delta */
(PID.TID 0000.0001)                 1.000000000000000E-10
(PID.TID 0000.0001)     ;
(PID.TID 0000.0001) SEAICE_EPS        = /* small number */
(PID.TID 0000.0001)                 1.000000000000000E-10
(PID.TID 0000.0001)     ;
(PID.TID 0000.0001) SEAICE_EPS_SQ     = /* small number squared */
(PID.TID 0000.0001)                 1.000000000000000E-20
(PID.TID 0000.0001)     ;
(PID.TID 0000.0001) SEAICE_area_reg   = /* reduce derivative singularities */
(PID.TID 0000.0001)                 1.000000000000000E-05
(PID.TID 0000.0001)     ;
(PID.TID 0000.0001) SEAICE_hice_reg   = /* reduce derivative singularities */
(PID.TID 0000.0001)                 5.000000000000000E-02
(PID.TID 0000.0001)     ;
(PID.TID 0000.0001) SEAICE_area_floor = /* reduce derivative singularities */
(PID.TID 0000.0001)                 1.000000000000000E-05
(PID.TID 0000.0001)     ;
(PID.TID 0000.0001) 
(PID.TID 0000.0001) // =======================================================
(PID.TID 0000.0001) // Seaice configuration (SEAICE_PARM01) >>> END <<<
(PID.TID 0000.0001) // =======================================================
(PID.TID 0000.0001) 
(PID.TID 0000.0001) ------------------------------------------------------------
(PID.TID 0000.0001) DIAGNOSTICS_SET_LEVELS: done
(PID.TID 0000.0001)  Total Nb of available Diagnostics: ndiagt=   221
(PID.TID 0000.0001)  write list of available Diagnostics to file: available_diagnostics.log
(PID.TID 0000.0001) SETDIAG: Allocate  1 x  1 Levels for Diagnostic #   216 SIsig11
(PID.TID 0000.0001) SETDIAG: Allocate  1 x  1 Levels for Diagnostic #   217 SIsig22
(PID.TID 0000.0001) SETDIAG: Allocate  1 x  1 Levels for Diagnostic #   155 SIuice
(PID.TID 0000.0001) SETDIAG: Allocate  1 x  1 Levels for Diagnostic #   156 SIvice
(PID.TID 0000.0001) SETDIAG: Allocate  1 x  1 Levels for Diagnostic #   146 SIarea
(PID.TID 0000.0001) SETDIAG: Allocate  1 x  1 Levels for Diagnostic #   149 SIheff
(PID.TID 0000.0001) SETDIAG: Allocate  1 x  1 Levels for Diagnostic #   219 SIeps11
(PID.TID 0000.0001) SETDIAG: Allocate  1 x  1 Levels for Diagnostic #   220 SIeps22
(PID.TID 0000.0001) SETDIAG: Allocate  1 x  1 Levels for Diagnostic #   218 SIsig12
(PID.TID 0000.0001) SETDIAG: Allocate  1 x  1 Levels for Diagnostic #   221 SIeps12
(PID.TID 0000.0001)   space allocated for all diagnostics:      10 levels
(PID.TID 0000.0001)   set mate pointer for diag #   155  SIuice   , Parms: UU      M1 , mate:   156
(PID.TID 0000.0001)   set mate pointer for diag #   156  SIvice   , Parms: VV      M1 , mate:   155
(PID.TID 0000.0001) DIAGNOSTICS_SET_POINTERS: Set levels for Outp.Stream: iceDiag
(PID.TID 0000.0001)  Levels:       1.
(PID.TID 0000.0001) DIAGNOSTICS_SET_POINTERS: done
(PID.TID 0000.0001) ------------------------------------------------------------
(PID.TID 0000.0001) DIAGSTATS_SET_REGIONS: define no region
(PID.TID 0000.0001) ------------------------------------------------------------
(PID.TID 0000.0001)   space allocated for all stats-diags:       0 levels
(PID.TID 0000.0001) DIAGSTATS_SET_POINTERS: done
(PID.TID 0000.0001) ------------------------------------------------------------
(PID.TID 0000.0001) %MON fCori_max                    =   0.0000000000000E+00
(PID.TID 0000.0001) %MON fCori_min                    =   0.0000000000000E+00
(PID.TID 0000.0001) %MON fCori_mean                   =   0.0000000000000E+00
(PID.TID 0000.0001) %MON fCori_sd                     =   0.0000000000000E+00
(PID.TID 0000.0001) %MON fCoriG_max                   =   0.0000000000000E+00
(PID.TID 0000.0001) %MON fCoriG_min                   =   0.0000000000000E+00
(PID.TID 0000.0001) %MON fCoriG_mean                  =   0.0000000000000E+00
(PID.TID 0000.0001) %MON fCoriG_sd                    =   0.0000000000000E+00
(PID.TID 0000.0001) %MON fCoriCos_max                 =   0.0000000000000E+00
(PID.TID 0000.0001) %MON fCoriCos_min                 =   0.0000000000000E+00
(PID.TID 0000.0001) %MON fCoriCos_mean                =   0.0000000000000E+00
(PID.TID 0000.0001) %MON fCoriCos_sd                  =   0.0000000000000E+00
(PID.TID 0000.0001) INI_CG2D: CG2D normalisation factor =  5.0000000000000001E-03
(PID.TID 0000.0001) 
(PID.TID 0000.0001) // =======================================================
(PID.TID 0000.0001) // Model configuration
(PID.TID 0000.0001) // =======================================================
(PID.TID 0000.0001) //
(PID.TID 0000.0001) // "Physical" paramters ( PARM01 in namelist )
(PID.TID 0000.0001) //
(PID.TID 0000.0001) buoyancyRelation = /* Type of relation to get Buoyancy */
(PID.TID 0000.0001)               'OCEANIC'
(PID.TID 0000.0001)     ;
(PID.TID 0000.0001) fluidIsAir   =  /* fluid major constituent is Air */
(PID.TID 0000.0001)                   F
(PID.TID 0000.0001)     ;
(PID.TID 0000.0001) fluidIsWater =  /* fluid major constituent is Water */
(PID.TID 0000.0001)                   T
(PID.TID 0000.0001)     ;
(PID.TID 0000.0001) usingPCoords =  /* use p (or p*) vertical coordinate */
(PID.TID 0000.0001)                   F
(PID.TID 0000.0001)     ;
(PID.TID 0000.0001) usingZCoords =  /* use z (or z*) vertical coordinate */
(PID.TID 0000.0001)                   T
(PID.TID 0000.0001)     ;
(PID.TID 0000.0001) tRef =   /* Reference temperature profile ( oC or K ) */
(PID.TID 0000.0001)                 2.400000000000000E+01       /* K =  1 */
(PID.TID 0000.0001)     ;
(PID.TID 0000.0001) sRef =   /* Reference salinity profile ( psu ) */
(PID.TID 0000.0001)                 3.465000000000000E+01       /* K =  1 */
(PID.TID 0000.0001)     ;
(PID.TID 0000.0001) useStrainTensionVisc= /* Use StrainTension Form of Viscous Operator */
(PID.TID 0000.0001)                   F
(PID.TID 0000.0001)     ;
(PID.TID 0000.0001) useVariableVisc = /* Use variable horizontal viscosity */
(PID.TID 0000.0001)                   F
(PID.TID 0000.0001)     ;
(PID.TID 0000.0001) useHarmonicVisc = /* Use harmonic horizontal viscosity */
(PID.TID 0000.0001)                   F
(PID.TID 0000.0001)     ;
(PID.TID 0000.0001) useBiharmonicVisc= /* Use biharmonic horiz.  viscosity */
(PID.TID 0000.0001)                   F
(PID.TID 0000.0001)     ;
(PID.TID 0000.0001) useSmag3D = /* Use isotropic 3-D Smagorinsky viscosity */
(PID.TID 0000.0001)                   F
(PID.TID 0000.0001)     ;
(PID.TID 0000.0001) viscAh  =   /* Lateral harmonic viscosity ( m^2/s ) */
(PID.TID 0000.0001)                 5.000000000000000E+04
(PID.TID 0000.0001)     ;
(PID.TID 0000.0001) viscA4  =   /* Lateral biharmonic viscosity ( m^4/s ) */
(PID.TID 0000.0001)                 0.000000000000000E+00
(PID.TID 0000.0001)     ;
(PID.TID 0000.0001) no_slip_sides =  /* Viscous BCs: No-slip sides */
(PID.TID 0000.0001)                   F
(PID.TID 0000.0001)     ;
(PID.TID 0000.0001) sideDragFactor = /* side-drag scaling factor (non-dim) */
(PID.TID 0000.0001)                 2.000000000000000E+00
(PID.TID 0000.0001)     ;
(PID.TID 0000.0001) viscArNr = /* vertical profile of vertical viscosity ( m^2/s )*/
(PID.TID 0000.0001)                 1.930000000000000E-05       /* K =  1 */
(PID.TID 0000.0001)     ;
(PID.TID 0000.0001) no_slip_bottom =  /* Viscous BCs: No-slip bottom */
(PID.TID 0000.0001)                   T
(PID.TID 0000.0001)     ;
(PID.TID 0000.0001) bottomVisc_pCell = /* Partial-cell in bottom Visc. BC */
(PID.TID 0000.0001)                   F
(PID.TID 0000.0001)     ;
(PID.TID 0000.0001) bottomDragLinear = /* linear bottom-drag coefficient ( m/s ) */
(PID.TID 0000.0001)                 0.000000000000000E+00
(PID.TID 0000.0001)     ;
(PID.TID 0000.0001) bottomDragQuadratic = /* quadratic bottom-drag coefficient (-) */
(PID.TID 0000.0001)                 0.000000000000000E+00
(PID.TID 0000.0001)     ;
(PID.TID 0000.0001) selectBotDragQuadr = /* select quadratic bottom drag options */
(PID.TID 0000.0001)                      -1
(PID.TID 0000.0001)     ;
(PID.TID 0000.0001) diffKhT =   /* Laplacian diffusion of heat laterally ( m^2/s ) */
(PID.TID 0000.0001)                 0.000000000000000E+00
(PID.TID 0000.0001)     ;
(PID.TID 0000.0001) diffK4T =   /* Biharmonic diffusion of heat laterally ( m^4/s ) */
(PID.TID 0000.0001)                 0.000000000000000E+00
(PID.TID 0000.0001)     ;
(PID.TID 0000.0001) diffKhS =   /* Laplacian diffusion of salt laterally ( m^2/s ) */
(PID.TID 0000.0001)                 0.000000000000000E+00
(PID.TID 0000.0001)     ;
(PID.TID 0000.0001) diffK4S =   /* Biharmonic diffusion of salt laterally ( m^4/s ) */
(PID.TID 0000.0001)                 0.000000000000000E+00
(PID.TID 0000.0001)     ;
(PID.TID 0000.0001) diffKrNrT = /* vertical profile of vertical diffusion of Temp ( m^2/s )*/
(PID.TID 0000.0001)                 1.460000000000000E-05       /* K =  1 */
(PID.TID 0000.0001)     ;
(PID.TID 0000.0001) diffKrNrS = /* vertical profile of vertical diffusion of Salt ( m^2/s )*/
(PID.TID 0000.0001)                 1.460000000000000E-05       /* K =  1 */
(PID.TID 0000.0001)     ;
(PID.TID 0000.0001) diffKrBL79surf = /* Surface diffusion for Bryan and Lewis 79 ( m^2/s ) */
(PID.TID 0000.0001)                 0.000000000000000E+00
(PID.TID 0000.0001)     ;
(PID.TID 0000.0001) diffKrBL79deep = /* Deep diffusion for Bryan and Lewis 1979 ( m^2/s ) */
(PID.TID 0000.0001)                 0.000000000000000E+00
(PID.TID 0000.0001)     ;
(PID.TID 0000.0001) diffKrBL79scl = /* Depth scale for Bryan and Lewis 1979 ( m ) */
(PID.TID 0000.0001)                 2.000000000000000E+02
(PID.TID 0000.0001)     ;
(PID.TID 0000.0001) diffKrBL79Ho = /* Turning depth for Bryan and Lewis 1979 ( m ) */
(PID.TID 0000.0001)                -2.000000000000000E+03
(PID.TID 0000.0001)     ;
(PID.TID 0000.0001) ivdc_kappa = /* Implicit Vertical Diffusivity for Convection ( m^2/s) */
(PID.TID 0000.0001)                 0.000000000000000E+00
(PID.TID 0000.0001)     ;
(PID.TID 0000.0001) hMixCriteria=  /* Criteria for mixed-layer diagnostic */
(PID.TID 0000.0001)                -8.000000000000000E-01
(PID.TID 0000.0001)     ;
(PID.TID 0000.0001) dRhoSmall =  /* Parameter for mixed-layer diagnostic */
(PID.TID 0000.0001)                 1.000000000000000E-06
(PID.TID 0000.0001)     ;
(PID.TID 0000.0001) hMixSmooth=  /* Smoothing parameter for mixed-layer diagnostic */
(PID.TID 0000.0001)                 0.000000000000000E+00
(PID.TID 0000.0001)     ;
(PID.TID 0000.0001) eosType =  /* Type of Equation of State */
(PID.TID 0000.0001)               'JMD95Z'
(PID.TID 0000.0001)     ;
(PID.TID 0000.0001) selectP_inEOS_Zc = /* select pressure to use in EOS (0,1,2,3) */
(PID.TID 0000.0001)                       0
(PID.TID 0000.0001)     0= -g*rhoConst*z ; 1= pRef (from tRef,sRef); 2= Hyd P ; 3= Hyd+NH P
(PID.TID 0000.0001)     ;
(PID.TID 0000.0001) HeatCapacity_Cp =  /* Specific heat capacity ( J/kg/K ) */
(PID.TID 0000.0001)                 3.986000000000000E+03
(PID.TID 0000.0001)     ;
(PID.TID 0000.0001) celsius2K = /* 0 degree Celsius converted to Kelvin ( K ) */
(PID.TID 0000.0001)                 2.731600000000000E+02
(PID.TID 0000.0001)     ;
(PID.TID 0000.0001) rhoConst  = /* Reference density (Boussinesq)  ( kg/m^3 ) */
(PID.TID 0000.0001)                 1.027000000000000E+03
(PID.TID 0000.0001)     ;
(PID.TID 0000.0001) rhoFacC = /* normalized Reference density @ cell-Center (-) */
(PID.TID 0000.0001)                 1.000000000000000E+00       /* K =  1 */
(PID.TID 0000.0001)     ;
(PID.TID 0000.0001) rhoFacF = /* normalized Reference density @ W-Interface (-) */
(PID.TID 0000.0001)     2 @  1.000000000000000E+00              /* K =  1:  2 */
(PID.TID 0000.0001)     ;
(PID.TID 0000.0001) rhoConstFresh = /* Fresh-water reference density ( kg/m^3 ) */
(PID.TID 0000.0001)                 9.998000000000000E+02
(PID.TID 0000.0001)     ;
(PID.TID 0000.0001) gravity =   /* Gravitational acceleration ( m/s^2 ) */
(PID.TID 0000.0001)                 9.815600000000000E+00
(PID.TID 0000.0001)     ;
(PID.TID 0000.0001) gBaro =   /* Barotropic gravity ( m/s^2 ) */
(PID.TID 0000.0001)                 9.815600000000000E+00
(PID.TID 0000.0001)     ;
(PID.TID 0000.0001) gravFacC = /* gravity factor (vs surf.) @ cell-Center (-) */
(PID.TID 0000.0001)                 1.000000000000000E+00       /* K =  1 */
(PID.TID 0000.0001)     ;
(PID.TID 0000.0001) gravFacF = /* gravity factor (vs surf.) @ W-Interface (-) */
(PID.TID 0000.0001)     2 @  1.000000000000000E+00              /* K =  1:  2 */
(PID.TID 0000.0001)     ;
(PID.TID 0000.0001) rotationPeriod =   /* Rotation Period ( s ) */
(PID.TID 0000.0001)                 8.616400000000000E+04
(PID.TID 0000.0001)     ;
(PID.TID 0000.0001) omega =   /* Angular velocity ( rad/s ) */
(PID.TID 0000.0001)                 7.292123516990375E-05
(PID.TID 0000.0001)     ;
(PID.TID 0000.0001) f0 =   /* Reference coriolis parameter ( 1/s ) */
(PID.TID 0000.0001)                 0.000000000000000E+00
(PID.TID 0000.0001)     ;
(PID.TID 0000.0001) beta =   /* Beta ( 1/(m.s) ) */
(PID.TID 0000.0001)                 0.000000000000000E+00
(PID.TID 0000.0001)     ;
(PID.TID 0000.0001) fPrime =   /* Second coriolis parameter ( 1/s ) */
(PID.TID 0000.0001)                 0.000000000000000E+00
(PID.TID 0000.0001)     ;
(PID.TID 0000.0001) rigidLid =   /* Rigid lid on/off flag */
(PID.TID 0000.0001)                   F
(PID.TID 0000.0001)     ;
(PID.TID 0000.0001) implicitFreeSurface =   /* Implicit free surface on/off flag */
(PID.TID 0000.0001)                   T
(PID.TID 0000.0001)     ;
(PID.TID 0000.0001) freeSurfFac =   /* Implicit free surface factor */
(PID.TID 0000.0001)                 1.000000000000000E+00
(PID.TID 0000.0001)     ;
(PID.TID 0000.0001) implicSurfPress =  /* Surface Pressure implicit factor (0-1)*/
(PID.TID 0000.0001)                 1.000000000000000E+00
(PID.TID 0000.0001)     ;
(PID.TID 0000.0001) implicDiv2DFlow =  /* Barot. Flow Div. implicit factor (0-1)*/
(PID.TID 0000.0001)                 1.000000000000000E+00
(PID.TID 0000.0001)     ;
(PID.TID 0000.0001) uniformLin_PhiSurf = /* use uniform Bo_surf on/off flag*/
(PID.TID 0000.0001)                   T
(PID.TID 0000.0001)     ;
(PID.TID 0000.0001) uniformFreeSurfLev = /* free-surface level-index is uniform */
(PID.TID 0000.0001)                   T
(PID.TID 0000.0001)     ;
(PID.TID 0000.0001) hFacMin =   /* minimum partial cell factor (hFac) */
(PID.TID 0000.0001)                 1.000000000000000E+00
(PID.TID 0000.0001)     ;
(PID.TID 0000.0001) hFacMinDr = /* minimum partial cell thickness ( m) */
(PID.TID 0000.0001)                 0.000000000000000E+00
(PID.TID 0000.0001)     ;
(PID.TID 0000.0001) exactConserv =  /* Exact Volume Conservation on/off flag*/
(PID.TID 0000.0001)                   F
(PID.TID 0000.0001)     ;
(PID.TID 0000.0001) linFSConserveTr = /* Tracer correction for Lin Free Surface on/off flag*/
(PID.TID 0000.0001)                   F
(PID.TID 0000.0001)     ;
(PID.TID 0000.0001) nonlinFreeSurf = /* Non-linear Free Surf. options (-1,0,1,2,3)*/
(PID.TID 0000.0001)                       0
(PID.TID 0000.0001)      -1,0= Off ; 1,2,3= On, 2=+rescale gU,gV, 3=+update cg2d solv.
(PID.TID 0000.0001)     ;
(PID.TID 0000.0001) hFacInf =   /* lower threshold for hFac (nonlinFreeSurf only)*/
(PID.TID 0000.0001)                 2.000000000000000E-01
(PID.TID 0000.0001)     ;
(PID.TID 0000.0001) hFacSup =   /* upper threshold for hFac (nonlinFreeSurf only)*/
(PID.TID 0000.0001)                 2.000000000000000E+00
(PID.TID 0000.0001)     ;
(PID.TID 0000.0001) select_rStar = /* r* Vertical coord. options (=0 r coord.; >0 uses r*)*/
(PID.TID 0000.0001)                       0
(PID.TID 0000.0001)     ;
(PID.TID 0000.0001) useRealFreshWaterFlux = /* Real Fresh Water Flux on/off flag*/
(PID.TID 0000.0001)                   F
(PID.TID 0000.0001)     ;
(PID.TID 0000.0001) temp_EvPrRn = /* Temp. of Evap/Prec/R (UNSET=use local T)(oC)*/
(PID.TID 0000.0001)                 1.234567000000000E+05
(PID.TID 0000.0001)     ;
(PID.TID 0000.0001) salt_EvPrRn = /* Salin. of Evap/Prec/R (UNSET=use local S)(psu)*/
(PID.TID 0000.0001)                 0.000000000000000E+00
(PID.TID 0000.0001)     ;
(PID.TID 0000.0001) selectAddFluid = /* option for mass source/sink of fluid (=0: off) */
(PID.TID 0000.0001)                       0
(PID.TID 0000.0001)     ;
(PID.TID 0000.0001) temp_addMass = /* Temp. of addMass array (UNSET=use local T)(oC)*/
(PID.TID 0000.0001)                 1.234567000000000E+05
(PID.TID 0000.0001)     ;
(PID.TID 0000.0001) salt_addMass = /* Salin. of addMass array (UNSET=use local S)(psu)*/
(PID.TID 0000.0001)                 0.000000000000000E+00
(PID.TID 0000.0001)     ;
(PID.TID 0000.0001) convertFW2Salt = /* convert F.W. Flux to Salt Flux (-1=use local S)(psu)*/
(PID.TID 0000.0001)                 3.500000000000000E+01
(PID.TID 0000.0001)     ;
(PID.TID 0000.0001) use3Dsolver = /* use 3-D pressure solver on/off flag */
(PID.TID 0000.0001)                   F
(PID.TID 0000.0001)     ;
(PID.TID 0000.0001) nonHydrostatic =  /* Non-Hydrostatic on/off flag */
(PID.TID 0000.0001)                   F
(PID.TID 0000.0001)     ;
(PID.TID 0000.0001) nh_Am2 = /* Non-Hydrostatic terms scaling factor */
(PID.TID 0000.0001)                 1.000000000000000E+00
(PID.TID 0000.0001)     ;
(PID.TID 0000.0001) implicitNHPress = /* Non-Hyd Pressure implicit factor (0-1)*/
(PID.TID 0000.0001)                 1.000000000000000E+00
(PID.TID 0000.0001)     ;
(PID.TID 0000.0001) selectNHfreeSurf = /* Non-Hyd (free-)Surface option */
(PID.TID 0000.0001)                       0
(PID.TID 0000.0001)     ;
(PID.TID 0000.0001) quasiHydrostatic = /* Quasi-Hydrostatic on/off flag */
(PID.TID 0000.0001)                   F
(PID.TID 0000.0001)     ;
(PID.TID 0000.0001) calc_wVelocity = /* vertical velocity calculation on/off flag */
(PID.TID 0000.0001)                   F
(PID.TID 0000.0001)     ;
(PID.TID 0000.0001) momStepping =  /* Momentum equation on/off flag */
(PID.TID 0000.0001)                   F
(PID.TID 0000.0001)     ;
(PID.TID 0000.0001) vectorInvariantMomentum= /* Vector-Invariant Momentum on/off */
(PID.TID 0000.0001)                   F
(PID.TID 0000.0001)     ;
(PID.TID 0000.0001) momAdvection =  /* Momentum advection on/off flag */
(PID.TID 0000.0001)                   F
(PID.TID 0000.0001)     ;
(PID.TID 0000.0001) momViscosity =  /* Momentum viscosity on/off flag */
(PID.TID 0000.0001)                   F
(PID.TID 0000.0001)     ;
(PID.TID 0000.0001) momImplVertAdv= /* Momentum implicit vert. advection on/off*/
(PID.TID 0000.0001)                   F
(PID.TID 0000.0001)     ;
(PID.TID 0000.0001) implicitViscosity = /* Implicit viscosity on/off flag */
(PID.TID 0000.0001)                   F
(PID.TID 0000.0001)     ;
(PID.TID 0000.0001) selectImplicitDrag= /* Implicit bot Drag options (0,1,2)*/
(PID.TID 0000.0001)                       0
(PID.TID 0000.0001)     0= Expl. ; 1= Impl. on provis. Vel ; 2= Fully Impl (with surf.P)
(PID.TID 0000.0001)     ;
(PID.TID 0000.0001) metricTerms =  /* metric-Terms on/off flag */
(PID.TID 0000.0001)                   F
(PID.TID 0000.0001)     ;
(PID.TID 0000.0001) useNHMTerms = /* Non-Hydrostatic Metric-Terms on/off */
(PID.TID 0000.0001)                   F
(PID.TID 0000.0001)     ;
(PID.TID 0000.0001) selectCoriMap = /* Coriolis Map options (0,1,2,3)*/
(PID.TID 0000.0001)                       1
(PID.TID 0000.0001)     0= f-Plane ; 1= Beta-Plane ; 2= Spherical ; 3= read from file
(PID.TID 0000.0001)     ;
(PID.TID 0000.0001) use3dCoriolis = /* 3-D Coriolis on/off flag */
(PID.TID 0000.0001)                   F
(PID.TID 0000.0001)     ;
(PID.TID 0000.0001) useCoriolis =  /* Coriolis on/off flag */
(PID.TID 0000.0001)                   F
(PID.TID 0000.0001)     ;
(PID.TID 0000.0001) useCDscheme =  /* CD scheme on/off flag */
(PID.TID 0000.0001)                   F
(PID.TID 0000.0001)     ;
(PID.TID 0000.0001) useEnergyConservingCoriolis= /* Flx-Form Coriolis scheme flag */
(PID.TID 0000.0001)                   F
(PID.TID 0000.0001)     ;
(PID.TID 0000.0001) useJamartWetPoints= /* Coriolis WetPoints method flag */
(PID.TID 0000.0001)                   F
(PID.TID 0000.0001)     ;
(PID.TID 0000.0001) useJamartMomAdv= /* V.I Non-linear terms Jamart flag */
(PID.TID 0000.0001)                   F
(PID.TID 0000.0001)     ;
(PID.TID 0000.0001) useAbsVorticity= /* V.I Works with f+zeta in Coriolis */
(PID.TID 0000.0001)                   F
(PID.TID 0000.0001)     ;
(PID.TID 0000.0001) selectVortScheme= /* V.I Scheme selector for Vorticity-Term */
(PID.TID 0000.0001)               123456789
(PID.TID 0000.0001)    = 0 : enstrophy (Shallow-Water Eq.) conserving scheme by Sadourny, JAS 75
(PID.TID 0000.0001)    = 1 : same as 0 with modified hFac
(PID.TID 0000.0001)    = 2 : energy conserving scheme (used by Sadourny in JAS 75 paper)
(PID.TID 0000.0001)    = 3 : energy (general) and enstrophy (2D, nonDiv.) conserving scheme
(PID.TID 0000.0001)          from Sadourny (Burridge & Haseler, ECMWF Rep.4, 1977)
(PID.TID 0000.0001)     ;
(PID.TID 0000.0001) upwindVorticity= /* V.I Upwind bias vorticity flag */
(PID.TID 0000.0001)                   F
(PID.TID 0000.0001)     ;
(PID.TID 0000.0001) highOrderVorticity= /* V.I High order vort. advect. flag */
(PID.TID 0000.0001)                   F
(PID.TID 0000.0001)     ;
(PID.TID 0000.0001) upwindShear= /* V.I Upwind vertical Shear advection flag */
(PID.TID 0000.0001)                   F
(PID.TID 0000.0001)     ;
(PID.TID 0000.0001) selectKEscheme= /* V.I Kinetic Energy scheme selector */
(PID.TID 0000.0001)                       0
(PID.TID 0000.0001)     ;
(PID.TID 0000.0001) momForcing =  /* Momentum forcing on/off flag */
(PID.TID 0000.0001)                   F
(PID.TID 0000.0001)     ;
(PID.TID 0000.0001) momPressureForcing =  /* Momentum pressure term on/off flag */
(PID.TID 0000.0001)                   F
(PID.TID 0000.0001)     ;
(PID.TID 0000.0001) implicitIntGravWave= /* Implicit Internal Gravity Wave flag */
(PID.TID 0000.0001)                   F
(PID.TID 0000.0001)     ;
(PID.TID 0000.0001) staggerTimeStep =    /* Stagger time stepping on/off flag */
(PID.TID 0000.0001)                   F
(PID.TID 0000.0001)     ;
(PID.TID 0000.0001) doResetHFactors = /* reset thickness factors @ each time-step */
(PID.TID 0000.0001)                   F
(PID.TID 0000.0001)     ;
(PID.TID 0000.0001) multiDimAdvection =  /* enable/disable Multi-Dim Advection */
(PID.TID 0000.0001)                   T
(PID.TID 0000.0001)     ;
(PID.TID 0000.0001) useMultiDimAdvec =   /* Multi-Dim Advection is/is-not used */
(PID.TID 0000.0001)                   F
(PID.TID 0000.0001)     ;
(PID.TID 0000.0001) implicitDiffusion = /* Implicit Diffusion on/off flag */
(PID.TID 0000.0001)                   T
(PID.TID 0000.0001)     ;
(PID.TID 0000.0001) tempStepping =  /* Temperature equation on/off flag */
(PID.TID 0000.0001)                   F
(PID.TID 0000.0001)     ;
(PID.TID 0000.0001) tempAdvection = /* Temperature advection on/off flag */
(PID.TID 0000.0001)                   F
(PID.TID 0000.0001)     ;
(PID.TID 0000.0001) tempImplVertAdv = /* Temp. implicit vert. advection on/off */
(PID.TID 0000.0001)                   F
(PID.TID 0000.0001)     ;
(PID.TID 0000.0001) tempForcing  =  /* Temperature forcing on/off flag */
(PID.TID 0000.0001)                   F
(PID.TID 0000.0001)     ;
(PID.TID 0000.0001) doThetaClimRelax = /* apply SST relaxation on/off flag */
(PID.TID 0000.0001)                   F
(PID.TID 0000.0001)     ;
(PID.TID 0000.0001) tempIsActiveTr = /* Temp. is a dynamically Active Tracer */
(PID.TID 0000.0001)                   F
(PID.TID 0000.0001)     ;
(PID.TID 0000.0001) saltStepping =  /* Salinity equation on/off flag */
(PID.TID 0000.0001)                   F
(PID.TID 0000.0001)     ;
(PID.TID 0000.0001) saltAdvection = /* Salinity advection on/off flag */
(PID.TID 0000.0001)                   F
(PID.TID 0000.0001)     ;
(PID.TID 0000.0001) saltImplVertAdv = /* Sali. implicit vert. advection on/off */
(PID.TID 0000.0001)                   F
(PID.TID 0000.0001)     ;
(PID.TID 0000.0001) saltForcing  =  /* Salinity forcing on/off flag */
(PID.TID 0000.0001)                   F
(PID.TID 0000.0001)     ;
(PID.TID 0000.0001) doSaltClimRelax = /* apply SSS relaxation on/off flag */
(PID.TID 0000.0001)                   F
(PID.TID 0000.0001)     ;
(PID.TID 0000.0001) saltIsActiveTr = /* Salt  is a dynamically Active Tracer */
(PID.TID 0000.0001)                   F
(PID.TID 0000.0001)     ;
(PID.TID 0000.0001)  readBinaryPrec = /* Precision used for reading binary files */
(PID.TID 0000.0001)                      64
(PID.TID 0000.0001)     ;
(PID.TID 0000.0001) writeBinaryPrec = /* Precision used for writing binary files */
(PID.TID 0000.0001)                      64
(PID.TID 0000.0001)     ;
(PID.TID 0000.0001)  rwSuffixType =   /* select format of mds file suffix */
(PID.TID 0000.0001)                       0
(PID.TID 0000.0001)    = 0 : myIter (I10.10) ;   = 1 : 100*myTime (100th sec) ;
(PID.TID 0000.0001)    = 2 : myTime (seconds);   = 3 : myTime/360 (10th of hr);
(PID.TID 0000.0001)    = 4 : myTime/3600 (hours)
(PID.TID 0000.0001)     ;
(PID.TID 0000.0001)  globalFiles = /* write "global" (=not per tile) files */
(PID.TID 0000.0001)                   F
(PID.TID 0000.0001)     ;
(PID.TID 0000.0001)  useSingleCpuIO = /* only master MPI process does I/O */
(PID.TID 0000.0001)                   T
(PID.TID 0000.0001)     ;
(PID.TID 0000.0001)  useSingleCpuInput = /* only master process reads input */
(PID.TID 0000.0001)                   T
(PID.TID 0000.0001)     ;
(PID.TID 0000.0001) /* debLev[*]  : level of debug & auxiliary message printing */
(PID.TID 0000.0001) debLevZero =  0 ; /* level of disabled aux. msg printing */
(PID.TID 0000.0001)    debLevA =  1 ; /* level of minimum  aux. msg printing */
(PID.TID 0000.0001)    debLevB =  2 ; /* level of low aux. print (report read-file opening)*/
(PID.TID 0000.0001)    debLevC =  3 ; /* level of moderate debug prt (most pkgs debug msg) */
(PID.TID 0000.0001)    debLevD =  4 ; /* level of enhanced debug prt (add DEBUG_STATS prt) */
(PID.TID 0000.0001)    debLevE =  5 ; /* level of extensive debug printing */
(PID.TID 0000.0001) debugLevel =  /* select debug printing level */
(PID.TID 0000.0001)                       2
(PID.TID 0000.0001)     ;
(PID.TID 0000.0001)  plotLevel =  /* select PLOT_FIELD printing level */
(PID.TID 0000.0001)                       2
(PID.TID 0000.0001)     ;
(PID.TID 0000.0001) //
(PID.TID 0000.0001) // Elliptic solver(s) paramters ( PARM02 in namelist )
(PID.TID 0000.0001) //
(PID.TID 0000.0001) cg2dMaxIters =   /* Upper limit on 2d con. grad iterations  */
(PID.TID 0000.0001)                     500
(PID.TID 0000.0001)     ;
(PID.TID 0000.0001) cg2dChkResFreq =   /* 2d con. grad convergence test frequency */
(PID.TID 0000.0001)                       1
(PID.TID 0000.0001)     ;
(PID.TID 0000.0001) cg2dUseMinResSol= /* use cg2d last-iter(=0) / min-resid.(=1) solution */
(PID.TID 0000.0001)                       0
(PID.TID 0000.0001)     ;
(PID.TID 0000.0001) cg2dTargetResidual =   /* 2d con. grad target residual  */
(PID.TID 0000.0001)                 1.000000000000000E-12
(PID.TID 0000.0001)     ;
(PID.TID 0000.0001) cg2dTargetResWunit =   /* CG2d target residual [W units] */
(PID.TID 0000.0001)                -1.000000000000000E+00
(PID.TID 0000.0001)     ;
(PID.TID 0000.0001) cg2dPreCondFreq =   /* Freq. for updating cg2d preconditioner */
(PID.TID 0000.0001)                       1
(PID.TID 0000.0001)     ;
(PID.TID 0000.0001) useSRCGSolver =  /* use single reduction CG solver(s) */
(PID.TID 0000.0001)                   F
(PID.TID 0000.0001)     ;
(PID.TID 0000.0001) printResidualFreq = /* Freq. for printing CG residual */
(PID.TID 0000.0001)                       0
(PID.TID 0000.0001)     ;
(PID.TID 0000.0001) //
(PID.TID 0000.0001) // Time stepping paramters ( PARM03 in namelist )
(PID.TID 0000.0001) //
(PID.TID 0000.0001) deltaTMom =   /* Momentum equation timestep ( s ) */
(PID.TID 0000.0001)                 1.000000000000000E-01
(PID.TID 0000.0001)     ;
(PID.TID 0000.0001) deltaTFreeSurf = /* FreeSurface equation timestep ( s ) */
(PID.TID 0000.0001)                 1.000000000000000E-01
(PID.TID 0000.0001)     ;
(PID.TID 0000.0001) dTtracerLev =  /* Tracer equation timestep ( s ) */
(PID.TID 0000.0001)                 1.000000000000000E-01       /* K =  1 */
(PID.TID 0000.0001)     ;
(PID.TID 0000.0001) deltaTClock  =   /* Model clock timestep ( s ) */
(PID.TID 0000.0001)                 1.000000000000000E-01
(PID.TID 0000.0001)     ;
(PID.TID 0000.0001) cAdjFreq =   /* Convective adjustment interval ( s ) */
(PID.TID 0000.0001)                 0.000000000000000E+00
(PID.TID 0000.0001)     ;
(PID.TID 0000.0001) momForcingOutAB = /* =1: take Momentum Forcing out of Adams-Bash. stepping */
(PID.TID 0000.0001)                       1
(PID.TID 0000.0001)     ;
(PID.TID 0000.0001) tracForcingOutAB = /* =1: take T,S,pTr Forcing out of Adams-Bash. stepping */
(PID.TID 0000.0001)                       1
(PID.TID 0000.0001)     ;
(PID.TID 0000.0001) momDissip_In_AB = /* put Dissipation Tendency in Adams-Bash. stepping */
(PID.TID 0000.0001)                   T
(PID.TID 0000.0001)     ;
(PID.TID 0000.0001) doAB_onGtGs = /* apply AB on Tendencies (rather than on T,S)*/
(PID.TID 0000.0001)                   T
(PID.TID 0000.0001)     ;
(PID.TID 0000.0001) abEps =   /* Adams-Bashforth-2 stabilizing weight */
(PID.TID 0000.0001)                 1.000000000000000E-01
(PID.TID 0000.0001)     ;
(PID.TID 0000.0001) applyExchUV_early = /* Apply EXCH to U,V earlier in time-step */
(PID.TID 0000.0001)                   F
(PID.TID 0000.0001)     ;
(PID.TID 0000.0001) pickupStrictlyMatch= /* stop if pickup do not strictly match */
(PID.TID 0000.0001)                   F
(PID.TID 0000.0001)     ;
(PID.TID 0000.0001) nIter0   =   /* Run starting timestep number */
(PID.TID 0000.0001)                       0
(PID.TID 0000.0001)     ;
(PID.TID 0000.0001) nTimeSteps = /* Number of timesteps */
(PID.TID 0000.0001)                      10
(PID.TID 0000.0001)     ;
(PID.TID 0000.0001) nEndIter =   /* Run ending timestep number */
(PID.TID 0000.0001)                      10
(PID.TID 0000.0001)     ;
(PID.TID 0000.0001) baseTime =   /* Model base time ( s ) */
(PID.TID 0000.0001)                 0.000000000000000E+00
(PID.TID 0000.0001)     ;
(PID.TID 0000.0001) startTime =  /* Run start time ( s ) */
(PID.TID 0000.0001)                 0.000000000000000E+00
(PID.TID 0000.0001)     ;
(PID.TID 0000.0001) endTime  =   /* Integration ending time ( s ) */
(PID.TID 0000.0001)                 1.000000000000000E+00
(PID.TID 0000.0001)     ;
(PID.TID 0000.0001) pChkPtFreq = /* Permanent restart/pickup file interval ( s ) */
(PID.TID 0000.0001)                 0.000000000000000E+00
(PID.TID 0000.0001)     ;
(PID.TID 0000.0001) chkPtFreq  = /* Rolling restart/pickup file interval ( s ) */
(PID.TID 0000.0001)                 0.000000000000000E+00
(PID.TID 0000.0001)     ;
(PID.TID 0000.0001) pickup_write_mdsio =   /* Model IO flag. */
(PID.TID 0000.0001)                   T
(PID.TID 0000.0001)     ;
(PID.TID 0000.0001) pickup_read_mdsio =   /* Model IO flag. */
(PID.TID 0000.0001)                   T
(PID.TID 0000.0001)     ;
(PID.TID 0000.0001) pickup_write_mnc =   /* Model IO flag. */
(PID.TID 0000.0001)                   F
(PID.TID 0000.0001)     ;
(PID.TID 0000.0001) pickup_read_mnc =   /* Model IO flag. */
(PID.TID 0000.0001)                   F
(PID.TID 0000.0001)     ;
(PID.TID 0000.0001) writePickupAtEnd =   /* Model IO flag. */
(PID.TID 0000.0001)                   T
(PID.TID 0000.0001)     ;
(PID.TID 0000.0001) dumpFreq =   /* Model state write out interval ( s ). */
(PID.TID 0000.0001)                 0.000000000000000E+00
(PID.TID 0000.0001)     ;
(PID.TID 0000.0001) dumpInitAndLast= /* write out Initial & Last iter. model state */
(PID.TID 0000.0001)                   F
(PID.TID 0000.0001)     ;
(PID.TID 0000.0001) snapshot_mdsio =   /* Model IO flag. */
(PID.TID 0000.0001)                   T
(PID.TID 0000.0001)     ;
(PID.TID 0000.0001) snapshot_mnc =   /* Model IO flag. */
(PID.TID 0000.0001)                   F
(PID.TID 0000.0001)     ;
(PID.TID 0000.0001) monitorFreq =   /* Monitor output interval ( s ). */
(PID.TID 0000.0001)                 1.000000000000000E-01
(PID.TID 0000.0001)     ;
(PID.TID 0000.0001) monitorSelect = /* select group of variables to monitor */
(PID.TID 0000.0001)                       3
(PID.TID 0000.0001)     ;
(PID.TID 0000.0001) monitor_stdio =   /* Model IO flag. */
(PID.TID 0000.0001)                   T
(PID.TID 0000.0001)     ;
(PID.TID 0000.0001) monitor_mnc =   /* Model IO flag. */
(PID.TID 0000.0001)                   F
(PID.TID 0000.0001)     ;
(PID.TID 0000.0001) externForcingPeriod =   /* forcing period (s) */
(PID.TID 0000.0001)                 0.000000000000000E+00
(PID.TID 0000.0001)     ;
(PID.TID 0000.0001) externForcingCycle =   /* period of the cyle (s). */
(PID.TID 0000.0001)                 0.000000000000000E+00
(PID.TID 0000.0001)     ;
(PID.TID 0000.0001) tauThetaClimRelax =   /* relaxation time scale (s) */
(PID.TID 0000.0001)                 0.000000000000000E+00
(PID.TID 0000.0001)     ;
(PID.TID 0000.0001) tauSaltClimRelax =   /* relaxation time scale (s) */
(PID.TID 0000.0001)                 0.000000000000000E+00
(PID.TID 0000.0001)     ;
(PID.TID 0000.0001) latBandClimRelax =   /* max. Lat. where relaxation */
(PID.TID 0000.0001)                 7.500000000000000E+04
(PID.TID 0000.0001)     ;
(PID.TID 0000.0001) //
(PID.TID 0000.0001) // Gridding paramters ( PARM04 in namelist )
(PID.TID 0000.0001) //
(PID.TID 0000.0001) usingCartesianGrid = /* Cartesian coordinates flag ( True/False ) */
(PID.TID 0000.0001)                   T
(PID.TID 0000.0001)     ;
(PID.TID 0000.0001) usingCylindricalGrid = /* Cylindrical coordinates flag ( True/False ) */
(PID.TID 0000.0001)                   F
(PID.TID 0000.0001)     ;
(PID.TID 0000.0001) usingSphericalPolarGrid = /* Spherical coordinates flag ( True/False ) */
(PID.TID 0000.0001)                   F
(PID.TID 0000.0001)     ;
(PID.TID 0000.0001) usingCurvilinearGrid = /* Curvilinear coordinates flag ( True/False ) */
(PID.TID 0000.0001)                   F
(PID.TID 0000.0001)     ;
(PID.TID 0000.0001) useMin4hFacEdges = /* set hFacW,S as minimum of adjacent hFacC factor */
(PID.TID 0000.0001)                   F
(PID.TID 0000.0001)     ;
(PID.TID 0000.0001) interViscAr_pCell = /* account for partial-cell in interior vert. viscosity */
(PID.TID 0000.0001)                   F
(PID.TID 0000.0001)     ;
(PID.TID 0000.0001) interDiffKr_pCell = /* account for partial-cell in interior vert. diffusion */
(PID.TID 0000.0001)                   F
(PID.TID 0000.0001)     ;
(PID.TID 0000.0001) pCellMix_select = /* option to enhance mixing near surface & bottom */
(PID.TID 0000.0001)                       0
(PID.TID 0000.0001)     ;
(PID.TID 0000.0001) selectSigmaCoord = /* Hybrid-Sigma Vert. Coordinate option */
(PID.TID 0000.0001)                       0
(PID.TID 0000.0001)     ;
(PID.TID 0000.0001) rSigmaBnd = /* r/sigma transition ( units of r ==  m ) */
(PID.TID 0000.0001)                 1.234567000000000E+05
(PID.TID 0000.0001)     ;
(PID.TID 0000.0001) rkSign =   /* index orientation relative to vertical coordinate */
(PID.TID 0000.0001)                -1.000000000000000E+00
(PID.TID 0000.0001)     ;
(PID.TID 0000.0001) gravitySign = /* gravity orientation relative to vertical coordinate */
(PID.TID 0000.0001)                -1.000000000000000E+00
(PID.TID 0000.0001)     ;
(PID.TID 0000.0001) seaLev_Z =  /* reference height of sea-level [m] */
(PID.TID 0000.0001)                 0.000000000000000E+00
(PID.TID 0000.0001)     ;
(PID.TID 0000.0001) top_Pres =  /* reference pressure at the top [Pa] */
(PID.TID 0000.0001)                 0.000000000000000E+00
(PID.TID 0000.0001)     ;
(PID.TID 0000.0001) mass2rUnit = /* convert mass per unit area [kg/m2] to r-units [m] */
(PID.TID 0000.0001)                 9.737098344693282E-04
(PID.TID 0000.0001)     ;
(PID.TID 0000.0001) rUnit2mass = /* convert r-units [m] to mass per unit area [kg/m2] */
(PID.TID 0000.0001)                 1.027000000000000E+03
(PID.TID 0000.0001)     ;
(PID.TID 0000.0001) drC =   /* C spacing ( units of r ) */
(PID.TID 0000.0001)     2 @  1.000000000000000E+02              /* K =  1:  2 */
(PID.TID 0000.0001)     ;
(PID.TID 0000.0001) drF =   /* W spacing ( units of r ) */
(PID.TID 0000.0001)                 2.000000000000000E+02       /* K =  1 */
(PID.TID 0000.0001)     ;
(PID.TID 0000.0001) delX = /* U spacing ( m - cartesian, degrees - spherical ) */
(PID.TID 0000.0001)    40 @  2.500000000000000E+02              /* I =  1: 40 */
(PID.TID 0000.0001)     ;
(PID.TID 0000.0001) delY = /* V spacing ( m - cartesian, degrees - spherical ) */
(PID.TID 0000.0001)   100 @  2.500000000000000E+02              /* J =  1:100 */
(PID.TID 0000.0001)     ;
(PID.TID 0000.0001) xgOrigin = /* X-axis origin of West  edge (cartesian: m, lat-lon: deg) */
(PID.TID 0000.0001)                 0.000000000000000E+00
(PID.TID 0000.0001)     ;
(PID.TID 0000.0001) ygOrigin = /* Y-axis origin of South edge (cartesian: m, lat-lon: deg) */
(PID.TID 0000.0001)                 0.000000000000000E+00
(PID.TID 0000.0001)     ;
(PID.TID 0000.0001) rSphere =  /* Radius ( ignored - cartesian, m - spherical ) */
(PID.TID 0000.0001)                 6.370000000000000E+06
(PID.TID 0000.0001)     ;
(PID.TID 0000.0001) deepAtmosphere = /* Deep/Shallow Atmosphere flag (True/False) */
(PID.TID 0000.0001)                   F
(PID.TID 0000.0001)     ;
(PID.TID 0000.0001) xC =  /* xC(:,1,:,1) : P-point X coord ( deg. or m if cartesian) */
(PID.TID 0000.0001)                 1.250000000000000E+02,      /* I =  1 */
(PID.TID 0000.0001)                 3.750000000000000E+02,      /* I =  2 */
(PID.TID 0000.0001)                 6.250000000000000E+02,      /* I =  3 */
(PID.TID 0000.0001)                 8.750000000000000E+02,      /* I =  4 */
(PID.TID 0000.0001)                 1.125000000000000E+03,      /* I =  5 */
(PID.TID 0000.0001)                 1.375000000000000E+03,      /* I =  6 */
(PID.TID 0000.0001)                 1.625000000000000E+03,      /* I =  7 */
(PID.TID 0000.0001)                 1.875000000000000E+03,      /* I =  8 */
(PID.TID 0000.0001)                 2.125000000000000E+03,      /* I =  9 */
(PID.TID 0000.0001)                 2.375000000000000E+03,      /* I = 10 */
(PID.TID 0000.0001)                 2.625000000000000E+03,      /* I = 11 */
(PID.TID 0000.0001)                 2.875000000000000E+03,      /* I = 12 */
(PID.TID 0000.0001)                 3.125000000000000E+03,      /* I = 13 */
(PID.TID 0000.0001)                 3.375000000000000E+03,      /* I = 14 */
(PID.TID 0000.0001)                 3.625000000000000E+03,      /* I = 15 */
(PID.TID 0000.0001)                 3.875000000000000E+03,      /* I = 16 */
(PID.TID 0000.0001)                 4.125000000000000E+03,      /* I = 17 */
(PID.TID 0000.0001)                 4.375000000000000E+03,      /* I = 18 */
(PID.TID 0000.0001)                 4.625000000000000E+03,      /* I = 19 */
(PID.TID 0000.0001)                 4.875000000000000E+03,      /* I = 20 */
(PID.TID 0000.0001)                 5.125000000000000E+03,      /* I = 21 */
(PID.TID 0000.0001)                 5.375000000000000E+03,      /* I = 22 */
(PID.TID 0000.0001)                 5.625000000000000E+03,      /* I = 23 */
(PID.TID 0000.0001)                 5.875000000000000E+03,      /* I = 24 */
(PID.TID 0000.0001)                 6.125000000000000E+03,      /* I = 25 */
(PID.TID 0000.0001)                 6.375000000000000E+03,      /* I = 26 */
(PID.TID 0000.0001)                 6.625000000000000E+03,      /* I = 27 */
(PID.TID 0000.0001)                 6.875000000000000E+03,      /* I = 28 */
(PID.TID 0000.0001)                 7.125000000000000E+03,      /* I = 29 */
(PID.TID 0000.0001)                 7.375000000000000E+03,      /* I = 30 */
(PID.TID 0000.0001)                 7.625000000000000E+03,      /* I = 31 */
(PID.TID 0000.0001)                 7.875000000000000E+03,      /* I = 32 */
(PID.TID 0000.0001)                 8.125000000000000E+03,      /* I = 33 */
(PID.TID 0000.0001)                 8.375000000000000E+03,      /* I = 34 */
(PID.TID 0000.0001)                 8.625000000000000E+03,      /* I = 35 */
(PID.TID 0000.0001)                 8.875000000000000E+03,      /* I = 36 */
(PID.TID 0000.0001)                 9.125000000000000E+03,      /* I = 37 */
(PID.TID 0000.0001)                 9.375000000000000E+03,      /* I = 38 */
(PID.TID 0000.0001)                 9.625000000000000E+03,      /* I = 39 */
(PID.TID 0000.0001)                 9.875000000000000E+03       /* I = 40 */
(PID.TID 0000.0001)     ;
(PID.TID 0000.0001) yC =  /* yC(1,:,1,:) : P-point Y coord ( deg. or m if cartesian) */
(PID.TID 0000.0001)                 1.250000000000000E+02,      /* J =  1 */
(PID.TID 0000.0001)                 3.750000000000000E+02,      /* J =  2 */
(PID.TID 0000.0001)                 6.250000000000000E+02,      /* J =  3 */
(PID.TID 0000.0001)      . . .
(PID.TID 0000.0001)                 5.625000000000000E+03,      /* J = 23 */
(PID.TID 0000.0001)                 5.875000000000000E+03,      /* J = 24 */
(PID.TID 0000.0001)                 6.125000000000000E+03,      /* J = 25 */
(PID.TID 0000.0001)                 6.375000000000000E+03,      /* J = 26 */
(PID.TID 0000.0001)                 6.625000000000000E+03,      /* J = 27 */
(PID.TID 0000.0001)                 6.875000000000000E+03,      /* J = 28 */
(PID.TID 0000.0001)      . . .
(PID.TID 0000.0001)                 1.187500000000000E+04,      /* J = 48 */
(PID.TID 0000.0001)                 1.212500000000000E+04,      /* J = 49 */
(PID.TID 0000.0001)                 1.237500000000000E+04,      /* J = 50 */
(PID.TID 0000.0001)                 1.262500000000000E+04,      /* J = 51 */
(PID.TID 0000.0001)                 1.287500000000000E+04,      /* J = 52 */
(PID.TID 0000.0001)                 1.312500000000000E+04,      /* J = 53 */
(PID.TID 0000.0001)      . . .
(PID.TID 0000.0001)                 1.812500000000000E+04,      /* J = 73 */
(PID.TID 0000.0001)                 1.837500000000000E+04,      /* J = 74 */
(PID.TID 0000.0001)                 1.862500000000000E+04,      /* J = 75 */
(PID.TID 0000.0001)                 1.887500000000000E+04,      /* J = 76 */
(PID.TID 0000.0001)                 1.912500000000000E+04,      /* J = 77 */
(PID.TID 0000.0001)                 1.937500000000000E+04,      /* J = 78 */
(PID.TID 0000.0001)      . . .
(PID.TID 0000.0001)                 2.437500000000000E+04,      /* J = 98 */
(PID.TID 0000.0001)                 2.462500000000000E+04,      /* J = 99 */
(PID.TID 0000.0001)                 2.487500000000000E+04       /* J =100 */
(PID.TID 0000.0001)     ;
(PID.TID 0000.0001) rcoord = /* P-point R coordinate (  units of r ) */
(PID.TID 0000.0001)                -1.000000000000000E+02       /* K =  1 */
(PID.TID 0000.0001)     ;
(PID.TID 0000.0001) rF =   /* W-Interf. R coordinate (  units of r ) */
(PID.TID 0000.0001)                 0.000000000000000E+00,      /* K =  1 */
(PID.TID 0000.0001)                -2.000000000000000E+02       /* K =  2 */
(PID.TID 0000.0001)     ;
(PID.TID 0000.0001) deepFacC = /* deep-model grid factor @ cell-Center (-) */
(PID.TID 0000.0001)                 1.000000000000000E+00       /* K =  1 */
(PID.TID 0000.0001)     ;
(PID.TID 0000.0001) deepFacF = /* deep-model grid factor @ W-Interface (-) */
(PID.TID 0000.0001)     2 @  1.000000000000000E+00              /* K =  1:  2 */
(PID.TID 0000.0001)     ;
(PID.TID 0000.0001) rVel2wUnit = /* convert units: rVel -> wSpeed (=1 if z-coord)*/
(PID.TID 0000.0001)     2 @  1.000000000000000E+00              /* K =  1:  2 */
(PID.TID 0000.0001)     ;
(PID.TID 0000.0001) wUnit2rVel = /* convert units: wSpeed -> rVel (=1 if z-coord)*/
(PID.TID 0000.0001)     2 @  1.000000000000000E+00              /* K =  1:  2 */
(PID.TID 0000.0001)     ;
(PID.TID 0000.0001) dBdrRef = /* Vertical grad. of reference buoyancy [(m/s/r)^2] */
(PID.TID 0000.0001)                 0.000000000000000E+00       /* K =  1 */
(PID.TID 0000.0001)     ;
(PID.TID 0000.0001) rotateGrid = /* use rotated grid ( True/False ) */
(PID.TID 0000.0001)                   F
(PID.TID 0000.0001)     ;
(PID.TID 0000.0001) phiEuler = /* Euler angle, rotation about original z-coordinate [rad] */
(PID.TID 0000.0001)                 0.000000000000000E+00
(PID.TID 0000.0001)     ;
(PID.TID 0000.0001) thetaEuler = /* Euler angle, rotation about new x-coordinate [rad] */
(PID.TID 0000.0001)                 0.000000000000000E+00
(PID.TID 0000.0001)     ;
(PID.TID 0000.0001) psiEuler = /* Euler angle, rotation about new z-coordinate [rad] */
(PID.TID 0000.0001)                 0.000000000000000E+00
(PID.TID 0000.0001)     ;
(PID.TID 0000.0001) dxF =  /* dxF(:,1,:,1) ( units: m ) */
(PID.TID 0000.0001)    40 @  2.500000000000000E+02              /* I =  1: 40 */
(PID.TID 0000.0001)     ;
(PID.TID 0000.0001) dxF =  /* dxF(1,:,1,:) ( units: m ) */
(PID.TID 0000.0001)   100 @  2.500000000000000E+02              /* J =  1:100 */
(PID.TID 0000.0001)     ;
(PID.TID 0000.0001) dyF =  /* dyF(:,1,:,1) ( units: m ) */
(PID.TID 0000.0001)    40 @  2.500000000000000E+02              /* I =  1: 40 */
(PID.TID 0000.0001)     ;
(PID.TID 0000.0001) dyF =  /* dyF(1,:,1,:) ( units: m ) */
(PID.TID 0000.0001)   100 @  2.500000000000000E+02              /* J =  1:100 */
(PID.TID 0000.0001)     ;
(PID.TID 0000.0001) dxG =  /* dxG(:,1,:,1) ( units: m ) */
(PID.TID 0000.0001)    40 @  2.500000000000000E+02              /* I =  1: 40 */
(PID.TID 0000.0001)     ;
(PID.TID 0000.0001) dxG =  /* dxG(1,:,1,:) ( units: m ) */
(PID.TID 0000.0001)   100 @  2.500000000000000E+02              /* J =  1:100 */
(PID.TID 0000.0001)     ;
(PID.TID 0000.0001) dyG =  /* dyG(:,1,:,1) ( units: m ) */
(PID.TID 0000.0001)    40 @  2.500000000000000E+02              /* I =  1: 40 */
(PID.TID 0000.0001)     ;
(PID.TID 0000.0001) dyG =  /* dyG(1,:,1,:) ( units: m ) */
(PID.TID 0000.0001)   100 @  2.500000000000000E+02              /* J =  1:100 */
(PID.TID 0000.0001)     ;
(PID.TID 0000.0001) dxC =  /* dxC(:,1,:,1) ( units: m ) */
(PID.TID 0000.0001)    40 @  2.500000000000000E+02              /* I =  1: 40 */
(PID.TID 0000.0001)     ;
(PID.TID 0000.0001) dxC =  /* dxC(1,:,1,:) ( units: m ) */
(PID.TID 0000.0001)   100 @  2.500000000000000E+02              /* J =  1:100 */
(PID.TID 0000.0001)     ;
(PID.TID 0000.0001) dyC =  /* dyC(:,1,:,1) ( units: m ) */
(PID.TID 0000.0001)    40 @  2.500000000000000E+02              /* I =  1: 40 */
(PID.TID 0000.0001)     ;
(PID.TID 0000.0001) dyC =  /* dyC(1,:,1,:) ( units: m ) */
(PID.TID 0000.0001)   100 @  2.500000000000000E+02              /* J =  1:100 */
(PID.TID 0000.0001)     ;
(PID.TID 0000.0001) dxV =  /* dxV(:,1,:,1) ( units: m ) */
(PID.TID 0000.0001)    40 @  2.500000000000000E+02              /* I =  1: 40 */
(PID.TID 0000.0001)     ;
(PID.TID 0000.0001) dxV =  /* dxV(1,:,1,:) ( units: m ) */
(PID.TID 0000.0001)   100 @  2.500000000000000E+02              /* J =  1:100 */
(PID.TID 0000.0001)     ;
(PID.TID 0000.0001) dyU =  /* dyU(:,1,:,1) ( units: m ) */
(PID.TID 0000.0001)    40 @  2.500000000000000E+02              /* I =  1: 40 */
(PID.TID 0000.0001)     ;
(PID.TID 0000.0001) dyU =  /* dyU(1,:,1,:) ( units: m ) */
(PID.TID 0000.0001)   100 @  2.500000000000000E+02              /* J =  1:100 */
(PID.TID 0000.0001)     ;
(PID.TID 0000.0001) rA  =  /* rA (:,1,:,1) ( units: m^2 ) */
(PID.TID 0000.0001)    40 @  6.250000000000000E+04              /* I =  1: 40 */
(PID.TID 0000.0001)     ;
(PID.TID 0000.0001) rA  =  /* rA (1,:,1,:) ( units: m^2 ) */
(PID.TID 0000.0001)   100 @  6.250000000000000E+04              /* J =  1:100 */
(PID.TID 0000.0001)     ;
(PID.TID 0000.0001) rAw =  /* rAw(:,1,:,1) ( units: m^2 ) */
(PID.TID 0000.0001)    40 @  6.250000000000000E+04              /* I =  1: 40 */
(PID.TID 0000.0001)     ;
(PID.TID 0000.0001) rAw =  /* rAw(1,:,1,:) ( units: m^2 ) */
(PID.TID 0000.0001)   100 @  6.250000000000000E+04              /* J =  1:100 */
(PID.TID 0000.0001)     ;
(PID.TID 0000.0001) rAs =  /* rAs(:,1,:,1) ( units: m^2 ) */
(PID.TID 0000.0001)    40 @  6.250000000000000E+04              /* I =  1: 40 */
(PID.TID 0000.0001)     ;
(PID.TID 0000.0001) rAs =  /* rAs(1,:,1,:) ( units: m^2 ) */
(PID.TID 0000.0001)   100 @  6.250000000000000E+04              /* J =  1:100 */
(PID.TID 0000.0001)     ;
(PID.TID 0000.0001) globalArea = /* Integrated horizontal Area (m^2) */
(PID.TID 0000.0001)                 2.327500000000000E+08
(PID.TID 0000.0001)     ;
(PID.TID 0000.0001) // =======================================================
(PID.TID 0000.0001) // End of Model config. summary
(PID.TID 0000.0001) // =======================================================
(PID.TID 0000.0001) 
(PID.TID 0000.0001) == Packages configuration : Check & print summary ==
(PID.TID 0000.0001) 
(PID.TID 0000.0001) OBCS_CHECK: #define ALLOW_OBCS
(PID.TID 0000.0001) OBCS_CHECK: start summary:
(PID.TID 0000.0001) useOBCSprescribe = /* prescribe OB values */
(PID.TID 0000.0001)                   T
(PID.TID 0000.0001)     ;
(PID.TID 0000.0001) useOBCSbalance = /* balance the flow through OB */
(PID.TID 0000.0001)                   F
(PID.TID 0000.0001)     ;
(PID.TID 0000.0001) OBCS_uvApplyFac = /* Factor to apply to U,V 2nd column/row */
(PID.TID 0000.0001)                 1.000000000000000E+00
(PID.TID 0000.0001)     ;
(PID.TID 0000.0001) OBCS_u1_adv_T = /* Temp uses upwind adv-scheme @ OB */
(PID.TID 0000.0001)                       0
(PID.TID 0000.0001)     ;
(PID.TID 0000.0001) OBCS_u1_adv_S = /* Salt uses upwind adv-scheme @ OB */
(PID.TID 0000.0001)                       0
(PID.TID 0000.0001)     ;
(PID.TID 0000.0001) OBCS_monitorFreq = /* monitor output frequency [s] */
(PID.TID 0000.0001)                 1.000000000000000E-01
(PID.TID 0000.0001)     ;
(PID.TID 0000.0001) OBCS_monSelect = /* select group of variables to monitor */
(PID.TID 0000.0001)                       0
(PID.TID 0000.0001)     ;
(PID.TID 0000.0001) useOBCStides = /* apply tidal forcing through OB */
(PID.TID 0000.0001)                   F
(PID.TID 0000.0001)     ;
(PID.TID 0000.0001) tidalPeriod = /* (s) */
(PID.TID 0000.0001)    10 @  0.000000000000000E+00              /* I =  1: 10 */
(PID.TID 0000.0001)     ;
(PID.TID 0000.0001) OB_indexNone = /* null value for OB index (i.e. no OB) */
(PID.TID 0000.0001)                     -99
(PID.TID 0000.0001)     ;
(PID.TID 0000.0001) ======== Tile bi=   1 , bj=   1 ========
(PID.TID 0000.0001)  OB_Jn = /* Northern OB local indices */
(PID.TID 0000.0001)    46 @      100                            /* I = -2: 43 */
(PID.TID 0000.0001)  OB_Js = /* Southern OB local indices */
(PID.TID 0000.0001)    46 @      -99                            /* I = -2: 43 */
(PID.TID 0000.0001)  OB_Ie = /* Eastern OB local indices */
(PID.TID 0000.0001)   106 @       40                            /* J = -2:103 */
(PID.TID 0000.0001)  OB_Iw = /* Western OB local indices */
(PID.TID 0000.0001)   106 @        1                            /* J = -2:103 */
(PID.TID 0000.0001) OBCS_CHECK: end summary.
(PID.TID 0000.0001) OBCS_CHECK: set-up OK
(PID.TID 0000.0001) OBCS_CHECK: check Inside Mask and OB locations: OK
(PID.TID 0000.0001) EXF_CHECK: #define ALLOW_EXF
(PID.TID 0000.0001) SEAICE_CHECK: #define ALLOW_SEAICE
(PID.TID 0000.0001) // =======================================================
(PID.TID 0000.0001) // Check Model config. (CONFIG_CHECK):
(PID.TID 0000.0001) // CONFIG_CHECK : Normal End
(PID.TID 0000.0001) // =======================================================
(PID.TID 0000.0001) 
(PID.TID 0000.0001) Start initial hydrostatic pressure computation
(PID.TID 0000.0001) Pressure is predetermined for buoyancyRelation OCEANIC
(PID.TID 0000.0001) 
(PID.TID 0000.0001)  write diagnostics summary to file ioUnit:      6
Iter.Nb:         0 ; Time(s):  0.0000000000000E+00
------------------------------------------------------------------------
2D/3D diagnostics: Number of lists:     1
------------------------------------------------------------------------
listId=    1 ; file name: iceDiag
 nFlds, nActive,       freq     &     phase        , nLev               
   10  |   10  |         0.100000         0.000000 |   1
 levels:   1
 diag# | name   |   ipt  |  iMate | kLev|   count |   mate.C|           
   216 |SIsig11 |      1 |      0 |   1 |       0 |
   217 |SIsig22 |      2 |      0 |   1 |       0 |
   155 |SIuice  |      3 |      4 |   1 |       0 |       0 |
   156 |SIvice  |      4 |      3 |   1 |       0 |       0 |
   146 |SIarea  |      5 |      0 |   1 |       0 |
   149 |SIheff  |      6 |      0 |   1 |       0 |
   219 |SIeps11 |      7 |      0 |   1 |       0 |
   220 |SIeps22 |      8 |      0 |   1 |       0 |
   218 |SIsig12 |      9 |      0 |   1 |       0 |
   221 |SIeps12 |     10 |      0 |   1 |       0 |
------------------------------------------------------------------------
Global & Regional Statistics diagnostics: Number of lists:     0
------------------------------------------------------------------------
(PID.TID 0000.0001)  MDS_READ_FIELD: opening global file: ice0_heff_DMcomp.bin
(PID.TID 0000.0001)  MDS_READ_FIELD: opening global file: ice0_area_DMcomp.bin
(PID.TID 0000.0001)  MDS_READ_SEC_XZ: opening global file: OBNuice.DMcomp
(PID.TID 0000.0001)  MDS_READ_SEC_XZ: opening global file: OBNuice.DMcomp
(PID.TID 0000.0001)  MDS_READ_SEC_XZ: opening global file: OBNvice.DMcomp
(PID.TID 0000.0001)  MDS_READ_SEC_XZ: opening global file: OBNvice.DMcomp
(PID.TID 0000.0001) // =======================================================
(PID.TID 0000.0001) // Model current state
(PID.TID 0000.0001) // =======================================================
(PID.TID 0000.0001) 
(PID.TID 0000.0001) // =======================================================
(PID.TID 0000.0001) // Begin MONITOR dynamic field statistics
(PID.TID 0000.0001) // =======================================================
(PID.TID 0000.0001) %MON time_tsnumber                =                     0
(PID.TID 0000.0001) %MON time_secondsf                =   0.0000000000000E+00
(PID.TID 0000.0001) %MON dynstat_eta_max              =   0.0000000000000E+00
(PID.TID 0000.0001) %MON dynstat_eta_min              =   0.0000000000000E+00
(PID.TID 0000.0001) %MON dynstat_eta_mean             =   0.0000000000000E+00
(PID.TID 0000.0001) %MON dynstat_eta_sd               =   0.0000000000000E+00
(PID.TID 0000.0001) %MON dynstat_eta_del2             =   0.0000000000000E+00
(PID.TID 0000.0001) %MON dynstat_uvel_max             =   0.0000000000000E+00
(PID.TID 0000.0001) %MON dynstat_uvel_min             =   0.0000000000000E+00
(PID.TID 0000.0001) %MON dynstat_uvel_mean            =   0.0000000000000E+00
(PID.TID 0000.0001) %MON dynstat_uvel_sd              =   0.0000000000000E+00
(PID.TID 0000.0001) %MON dynstat_uvel_del2            =   0.0000000000000E+00
(PID.TID 0000.0001) %MON dynstat_vvel_max             =   0.0000000000000E+00
(PID.TID 0000.0001) %MON dynstat_vvel_min             =   0.0000000000000E+00
(PID.TID 0000.0001) %MON dynstat_vvel_mean            =   0.0000000000000E+00
(PID.TID 0000.0001) %MON dynstat_vvel_sd              =   0.0000000000000E+00
(PID.TID 0000.0001) %MON dynstat_vvel_del2            =   0.0000000000000E+00
(PID.TID 0000.0001) %MON dynstat_wvel_max             =  -0.0000000000000E+00
(PID.TID 0000.0001) %MON dynstat_wvel_min             =  -0.0000000000000E+00
(PID.TID 0000.0001) %MON dynstat_wvel_mean            =   0.0000000000000E+00
(PID.TID 0000.0001) %MON dynstat_wvel_sd              =   0.0000000000000E+00
(PID.TID 0000.0001) %MON dynstat_wvel_del2            =   0.0000000000000E+00
(PID.TID 0000.0001) %MON dynstat_theta_max            =   2.4000000000000E+01
(PID.TID 0000.0001) %MON dynstat_theta_min            =   2.4000000000000E+01
(PID.TID 0000.0001) %MON dynstat_theta_mean           =   2.4000000000000E+01
(PID.TID 0000.0001) %MON dynstat_theta_sd             =   0.0000000000000E+00
(PID.TID 0000.0001) %MON dynstat_theta_del2           =   0.0000000000000E+00
(PID.TID 0000.0001) %MON dynstat_salt_max             =   3.4650000000000E+01
(PID.TID 0000.0001) %MON dynstat_salt_min             =   3.4650000000000E+01
(PID.TID 0000.0001) %MON dynstat_salt_mean            =   3.4650000000000E+01
(PID.TID 0000.0001) %MON dynstat_salt_sd              =   0.0000000000000E+00
(PID.TID 0000.0001) %MON dynstat_salt_del2            =   0.0000000000000E+00
(PID.TID 0000.0001) %MON dynstat_sst_max              =   2.4000000000000E+01
(PID.TID 0000.0001) %MON dynstat_sst_min              =   2.4000000000000E+01
(PID.TID 0000.0001) %MON dynstat_sst_mean             =   2.4000000000000E+01
(PID.TID 0000.0001) %MON dynstat_sst_sd               =   0.0000000000000E+00
(PID.TID 0000.0001) %MON dynstat_sst_del2             =   0.0000000000000E+00
(PID.TID 0000.0001) %MON dynstat_sss_max              =   3.4650000000000E+01
(PID.TID 0000.0001) %MON dynstat_sss_min              =   3.4650000000000E+01
(PID.TID 0000.0001) %MON dynstat_sss_mean             =   3.4650000000000E+01
(PID.TID 0000.0001) %MON dynstat_sss_sd               =   0.0000000000000E+00
(PID.TID 0000.0001) %MON dynstat_sss_del2             =   0.0000000000000E+00
(PID.TID 0000.0001) %MON forcing_qnet_max             =   0.0000000000000E+00
(PID.TID 0000.0001) %MON forcing_qnet_min             =   0.0000000000000E+00
(PID.TID 0000.0001) %MON forcing_qnet_mean            =   0.0000000000000E+00
(PID.TID 0000.0001) %MON forcing_qnet_sd              =   0.0000000000000E+00
(PID.TID 0000.0001) %MON forcing_qnet_del2            =   0.0000000000000E+00
(PID.TID 0000.0001) %MON forcing_qsw_max              =   0.0000000000000E+00
(PID.TID 0000.0001) %MON forcing_qsw_min              =   0.0000000000000E+00
(PID.TID 0000.0001) %MON forcing_qsw_mean             =   0.0000000000000E+00
(PID.TID 0000.0001) %MON forcing_qsw_sd               =   0.0000000000000E+00
(PID.TID 0000.0001) %MON forcing_qsw_del2             =   0.0000000000000E+00
(PID.TID 0000.0001) %MON forcing_empmr_max            =   0.0000000000000E+00
(PID.TID 0000.0001) %MON forcing_empmr_min            =   0.0000000000000E+00
(PID.TID 0000.0001) %MON forcing_empmr_mean           =   0.0000000000000E+00
(PID.TID 0000.0001) %MON forcing_empmr_sd             =   0.0000000000000E+00
(PID.TID 0000.0001) %MON forcing_empmr_del2           =   0.0000000000000E+00
(PID.TID 0000.0001) %MON forcing_fu_max               =   0.0000000000000E+00
(PID.TID 0000.0001) %MON forcing_fu_min               =   0.0000000000000E+00
(PID.TID 0000.0001) %MON forcing_fu_mean              =   0.0000000000000E+00
(PID.TID 0000.0001) %MON forcing_fu_sd                =   0.0000000000000E+00
(PID.TID 0000.0001) %MON forcing_fu_del2              =   0.0000000000000E+00
(PID.TID 0000.0001) %MON forcing_fv_max               =   0.0000000000000E+00
(PID.TID 0000.0001) %MON forcing_fv_min               =   0.0000000000000E+00
(PID.TID 0000.0001) %MON forcing_fv_mean              =   0.0000000000000E+00
(PID.TID 0000.0001) %MON forcing_fv_sd                =   0.0000000000000E+00
(PID.TID 0000.0001) %MON forcing_fv_del2              =   0.0000000000000E+00
(PID.TID 0000.0001) %MON trAdv_CFL_u_max              =   0.0000000000000E+00
(PID.TID 0000.0001) %MON trAdv_CFL_v_max              =   0.0000000000000E+00
(PID.TID 0000.0001) %MON trAdv_CFL_w_max              =   0.0000000000000E+00
(PID.TID 0000.0001) %MON advcfl_uvel_max              =   0.0000000000000E+00
(PID.TID 0000.0001) %MON advcfl_vvel_max              =   0.0000000000000E+00
(PID.TID 0000.0001) %MON advcfl_wvel_max              =   0.0000000000000E+00
(PID.TID 0000.0001) %MON advcfl_W_hf_max              =   0.0000000000000E+00
(PID.TID 0000.0001) %MON pe_b_mean                    =   0.0000000000000E+00
(PID.TID 0000.0001) %MON ke_max                       =   0.0000000000000E+00
(PID.TID 0000.0001) %MON ke_mean                      =   0.0000000000000E+00
(PID.TID 0000.0001) %MON ke_vol                       =   4.6550000000000E+10
(PID.TID 0000.0001) %MON vort_r_min                   =   0.0000000000000E+00
(PID.TID 0000.0001) %MON vort_r_max                   =   0.0000000000000E+00
(PID.TID 0000.0001) %MON vort_a_mean                  =   0.0000000000000E+00
(PID.TID 0000.0001) %MON vort_a_sd                    =   0.0000000000000E+00
(PID.TID 0000.0001) %MON vort_p_mean                  =   0.0000000000000E+00
(PID.TID 0000.0001) %MON vort_p_sd                    =   0.0000000000000E+00
(PID.TID 0000.0001) %MON surfExpan_theta_mean         =   0.0000000000000E+00
(PID.TID 0000.0001) %MON surfExpan_salt_mean          =   0.0000000000000E+00
(PID.TID 0000.0001) // =======================================================
(PID.TID 0000.0001) // End MONITOR dynamic field statistics
(PID.TID 0000.0001) // =======================================================
(PID.TID 0000.0001) // =======================================================
(PID.TID 0000.0001) // Begin OBCS MONITOR field statistics
(PID.TID 0000.0001) // =======================================================
(PID.TID 0000.0001) %MON obc_E_uVel_max               =   0.0000000000000E+00
(PID.TID 0000.0001) %MON obc_E_uVel_min               =   0.0000000000000E+00
(PID.TID 0000.0001) %MON obc_E_uVel_mean              =   0.0000000000000E+00
(PID.TID 0000.0001) %MON obc_E_uVel_sd                =   0.0000000000000E+00
(PID.TID 0000.0001) %MON obc_E_uVel_Int               =   0.0000000000000E+00
(PID.TID 0000.0001) %MON obc_W_uVel_max               =   0.0000000000000E+00
(PID.TID 0000.0001) %MON obc_W_uVel_min               =   0.0000000000000E+00
(PID.TID 0000.0001) %MON obc_W_uVel_mean              =   0.0000000000000E+00
(PID.TID 0000.0001) %MON obc_W_uVel_sd                =   0.0000000000000E+00
(PID.TID 0000.0001) %MON obc_W_uVel_Int               =   0.0000000000000E+00
(PID.TID 0000.0001) %MON obc_N_vVel_max               =   0.0000000000000E+00
(PID.TID 0000.0001) %MON obc_N_vVel_min               =   0.0000000000000E+00
(PID.TID 0000.0001) %MON obc_N_vVel_mean              =   0.0000000000000E+00
(PID.TID 0000.0001) %MON obc_N_vVel_sd                =   0.0000000000000E+00
(PID.TID 0000.0001) %MON obc_N_vVel_Int               =   0.0000000000000E+00
(PID.TID 0000.0001) // =======================================================
(PID.TID 0000.0001) // End OBCS MONITOR field statistics
(PID.TID 0000.0001) // =======================================================
(PID.TID 0000.0001) // =======================================================
(PID.TID 0000.0001) // Begin MONITOR SEAICE statistics
(PID.TID 0000.0001) // =======================================================
(PID.TID 0000.0001) %MON seaice_tsnumber              =                     0
(PID.TID 0000.0001) %MON seaice_time_sec              =   0.0000000000000E+00
(PID.TID 0000.0001) %MON seaice_uice_max              =   0.0000000000000E+00
(PID.TID 0000.0001) %MON seaice_uice_min              =   0.0000000000000E+00
(PID.TID 0000.0001) %MON seaice_uice_mean             =   0.0000000000000E+00
(PID.TID 0000.0001) %MON seaice_uice_sd               =   0.0000000000000E+00
(PID.TID 0000.0001) %MON seaice_uice_del2             =   0.0000000000000E+00
(PID.TID 0000.0001) %MON seaice_vice_max              =   0.0000000000000E+00
(PID.TID 0000.0001) %MON seaice_vice_min              =   0.0000000000000E+00
(PID.TID 0000.0001) %MON seaice_vice_mean             =   0.0000000000000E+00
(PID.TID 0000.0001) %MON seaice_vice_sd               =   0.0000000000000E+00
(PID.TID 0000.0001) %MON seaice_vice_del2             =   0.0000000000000E+00
(PID.TID 0000.0001) %MON seaice_area_max              =   1.0000000000000E+00
(PID.TID 0000.0001) %MON seaice_area_min              =   0.0000000000000E+00
(PID.TID 0000.0001) %MON seaice_area_mean             =   8.4210526315789E-01
(PID.TID 0000.0001) %MON seaice_area_sd               =   3.6464227527766E-01
(PID.TID 0000.0001) %MON seaice_area_del2             =   5.3165923397485E-03
(PID.TID 0000.0001) %MON seaice_heff_max              =   1.0000000000000E+00
(PID.TID 0000.0001) %MON seaice_heff_min              =   0.0000000000000E+00
(PID.TID 0000.0001) %MON seaice_heff_mean             =   8.4210526315789E-01
(PID.TID 0000.0001) %MON seaice_heff_sd               =   3.6464227527766E-01
(PID.TID 0000.0001) %MON seaice_heff_del2             =   5.3165923397485E-03
(PID.TID 0000.0001) %MON seaice_hsnow_max             =   2.0000000000000E-01
(PID.TID 0000.0001) %MON seaice_hsnow_min             =   0.0000000000000E+00
(PID.TID 0000.0001) %MON seaice_hsnow_mean            =   1.6842105263158E-01
(PID.TID 0000.0001) %MON seaice_hsnow_sd              =   7.2928455055531E-02
(PID.TID 0000.0001) %MON seaice_hsnow_del2            =   1.0633184679497E-03
(PID.TID 0000.0001) // =======================================================
(PID.TID 0000.0001) // End MONITOR SEAICE statistics
(PID.TID 0000.0001) // =======================================================
(PID.TID 0000.0001) // =======================================================
(PID.TID 0000.0001) // Begin MONITOR EXF statistics
(PID.TID 0000.0001) // =======================================================
(PID.TID 0000.0001) %MON exf_tsnumber                 =                     0
(PID.TID 0000.0001) %MON exf_time_sec                 =   0.0000000000000E+00
(PID.TID 0000.0001) %MON exf_ustress_max              =   0.0000000000000E+00
(PID.TID 0000.0001) %MON exf_ustress_min              =   0.0000000000000E+00
(PID.TID 0000.0001) %MON exf_ustress_mean             =   0.0000000000000E+00
(PID.TID 0000.0001) %MON exf_ustress_sd               =   0.0000000000000E+00
(PID.TID 0000.0001) %MON exf_ustress_del2             =   0.0000000000000E+00
(PID.TID 0000.0001) %MON exf_vstress_max              =   0.0000000000000E+00
(PID.TID 0000.0001) %MON exf_vstress_min              =   0.0000000000000E+00
(PID.TID 0000.0001) %MON exf_vstress_mean             =   0.0000000000000E+00
(PID.TID 0000.0001) %MON exf_vstress_sd               =   0.0000000000000E+00
(PID.TID 0000.0001) %MON exf_vstress_del2             =   0.0000000000000E+00
(PID.TID 0000.0001) // =======================================================
(PID.TID 0000.0001) // End MONITOR EXF statistics
(PID.TID 0000.0001) // =======================================================
 SEAICE_LSR: Residual Initial ipass,Uice,Vice=    1  1.19447750E+01  1.28479345E+01
 SEAICE_LSR (ipass=   1) iters,dU,Resid=   280  9.76282966E-12  1.11588951E-02
 SEAICE_LSR (ipass=   1) iters,dV,Resid=  1500  6.21578346E-10  9.64228947E-01
 SEAICE_LSR: Residual Initial ipass,Uice,Vice=    2  7.97937684E+00  7.09654182E+00
 SEAICE_LSR (ipass=   2) iters,dU,Resid=   260  9.63273497E-12  1.05322297E-02
 SEAICE_LSR (ipass=   2) iters,dV,Resid=  1500  4.88521760E-10  7.49712112E-01
 SEAICE_LSR: Residual Initial ipass,Uice,Vice=    3  6.64273718E+00  5.07142036E+00
 SEAICE_LSR (ipass=   3) iters,dU,Resid=   242  9.72621222E-12  9.17092198E-03
 SEAICE_LSR (ipass=   3) iters,dV,Resid=  1500  4.20713520E-10  5.55424284E-01
 SEAICE_LSR: Residual Initial ipass,Uice,Vice=    4  6.11664789E+00  4.01488568E+00
 SEAICE_LSR (ipass=   4) iters,dU,Resid=   230  9.94131969E-12  8.22767372E-03
 SEAICE_LSR (ipass=   4) iters,dV,Resid=  1500  3.69552652E-10  4.24320172E-01
 SEAICE_LSR: Residual Initial ipass,Uice,Vice=    5  5.85965497E+00  3.38143245E+00
 SEAICE_LSR (ipass=   5) iters,dU,Resid=   222  9.75237987E-12  7.19222984E-03
 SEAICE_LSR (ipass=   5) iters,dV,Resid=  1500  3.31901843E-10  3.35776661E-01
 SEAICE_LSR: Residual Initial ipass,Uice,Vice=    6  5.70892066E+00  2.96877467E+00
 SEAICE_LSR (ipass=   6) iters,dU,Resid=   214  9.74434244E-12  6.48571633E-03
 SEAICE_LSR (ipass=   6) iters,dV,Resid=  1500  3.03935596E-10  2.73878441E-01
 SEAICE_LSR: Residual Initial ipass,Uice,Vice=    7  5.60788873E+00  2.68355915E+00
 SEAICE_LSR (ipass=   7) iters,dU,Resid=   206  9.81197982E-12  5.95310429E-03
 SEAICE_LSR (ipass=   7) iters,dV,Resid=  1500  2.82436906E-10  2.28767530E-01
 SEAICE_LSR: Residual Initial ipass,Uice,Vice=    8  5.53376582E+00  2.47714139E+00
 SEAICE_LSR (ipass=   8) iters,dU,Resid=   198  9.93882250E-12  5.54173920E-03
 SEAICE_LSR (ipass=   8) iters,dV,Resid=  1500  2.65185739E-10  1.94587745E-01
 SEAICE_LSR: Residual Initial ipass,Uice,Vice=    9  5.47605977E+00  2.32209860E+00
 SEAICE_LSR (ipass=   9) iters,dU,Resid=   192  9.51952625E-12  4.90627299E-03
 SEAICE_LSR (ipass=   9) iters,dV,Resid=  1500  2.50724685E-10  1.67807839E-01
 SEAICE_LSR: Residual Initial ipass,Uice,Vice=   10  5.42938437E+00  2.20211534E+00
 SEAICE_LSR (ipass=  10) iters,dU,Resid=   184  9.81130585E-12  4.69286677E-03
 SEAICE_LSR (ipass=  10) iters,dV,Resid=  1500  2.38105832E-10  1.46231029E-01
(PID.TID 0000.0001) // =======================================================
(PID.TID 0000.0001) // Begin MONITOR dynamic field statistics
(PID.TID 0000.0001) // =======================================================
(PID.TID 0000.0001) %MON time_tsnumber                =                     1
(PID.TID 0000.0001) %MON time_secondsf                =   1.0000000000000E-01
(PID.TID 0000.0001) %MON dynstat_eta_max              =   0.0000000000000E+00
(PID.TID 0000.0001) %MON dynstat_eta_min              =   0.0000000000000E+00
(PID.TID 0000.0001) %MON dynstat_eta_mean             =   0.0000000000000E+00
(PID.TID 0000.0001) %MON dynstat_eta_sd               =   0.0000000000000E+00
(PID.TID 0000.0001) %MON dynstat_eta_del2             =   0.0000000000000E+00
(PID.TID 0000.0001) %MON dynstat_uvel_max             =   0.0000000000000E+00
(PID.TID 0000.0001) %MON dynstat_uvel_min             =   0.0000000000000E+00
(PID.TID 0000.0001) %MON dynstat_uvel_mean            =   0.0000000000000E+00
(PID.TID 0000.0001) %MON dynstat_uvel_sd              =   0.0000000000000E+00
(PID.TID 0000.0001) %MON dynstat_uvel_del2            =   0.0000000000000E+00
(PID.TID 0000.0001) %MON dynstat_vvel_max             =   0.0000000000000E+00
(PID.TID 0000.0001) %MON dynstat_vvel_min             =   0.0000000000000E+00
(PID.TID 0000.0001) %MON dynstat_vvel_mean            =   0.0000000000000E+00
(PID.TID 0000.0001) %MON dynstat_vvel_sd              =   0.0000000000000E+00
(PID.TID 0000.0001) %MON dynstat_vvel_del2            =   0.0000000000000E+00
(PID.TID 0000.0001) %MON dynstat_wvel_max             =  -0.0000000000000E+00
(PID.TID 0000.0001) %MON dynstat_wvel_min             =  -0.0000000000000E+00
(PID.TID 0000.0001) %MON dynstat_wvel_mean            =   0.0000000000000E+00
(PID.TID 0000.0001) %MON dynstat_wvel_sd              =   0.0000000000000E+00
(PID.TID 0000.0001) %MON dynstat_wvel_del2            =   0.0000000000000E+00
(PID.TID 0000.0001) %MON dynstat_theta_max            =   2.4000000000000E+01
(PID.TID 0000.0001) %MON dynstat_theta_min            =   2.4000000000000E+01
(PID.TID 0000.0001) %MON dynstat_theta_mean           =   2.4000000000000E+01
(PID.TID 0000.0001) %MON dynstat_theta_sd             =   0.0000000000000E+00
(PID.TID 0000.0001) %MON dynstat_theta_del2           =   0.0000000000000E+00
(PID.TID 0000.0001) %MON dynstat_salt_max             =   3.4650000000000E+01
(PID.TID 0000.0001) %MON dynstat_salt_min             =   3.4650000000000E+01
(PID.TID 0000.0001) %MON dynstat_salt_mean            =   3.4650000000000E+01
(PID.TID 0000.0001) %MON dynstat_salt_sd              =   0.0000000000000E+00
(PID.TID 0000.0001) %MON dynstat_salt_del2            =   0.0000000000000E+00
(PID.TID 0000.0001) %MON dynstat_sst_max              =   2.4000000000000E+01
(PID.TID 0000.0001) %MON dynstat_sst_min              =   2.4000000000000E+01
(PID.TID 0000.0001) %MON dynstat_sst_mean             =   2.4000000000000E+01
(PID.TID 0000.0001) %MON dynstat_sst_sd               =   0.0000000000000E+00
(PID.TID 0000.0001) %MON dynstat_sst_del2             =   0.0000000000000E+00
(PID.TID 0000.0001) %MON dynstat_sss_max              =   3.4650000000000E+01
(PID.TID 0000.0001) %MON dynstat_sss_min              =   3.4650000000000E+01
(PID.TID 0000.0001) %MON dynstat_sss_mean             =   3.4650000000000E+01
(PID.TID 0000.0001) %MON dynstat_sss_sd               =   0.0000000000000E+00
(PID.TID 0000.0001) %MON dynstat_sss_del2             =   0.0000000000000E+00
(PID.TID 0000.0001) %MON forcing_qnet_max             =   0.0000000000000E+00
(PID.TID 0000.0001) %MON forcing_qnet_min             =   0.0000000000000E+00
(PID.TID 0000.0001) %MON forcing_qnet_mean            =   0.0000000000000E+00
(PID.TID 0000.0001) %MON forcing_qnet_sd              =   0.0000000000000E+00
(PID.TID 0000.0001) %MON forcing_qnet_del2            =   0.0000000000000E+00
(PID.TID 0000.0001) %MON forcing_qsw_max              =   0.0000000000000E+00
(PID.TID 0000.0001) %MON forcing_qsw_min              =   0.0000000000000E+00
(PID.TID 0000.0001) %MON forcing_qsw_mean             =   0.0000000000000E+00
(PID.TID 0000.0001) %MON forcing_qsw_sd               =   0.0000000000000E+00
(PID.TID 0000.0001) %MON forcing_qsw_del2             =   0.0000000000000E+00
(PID.TID 0000.0001) %MON forcing_empmr_max            =   0.0000000000000E+00
(PID.TID 0000.0001) %MON forcing_empmr_min            =   0.0000000000000E+00
(PID.TID 0000.0001) %MON forcing_empmr_mean           =   0.0000000000000E+00
(PID.TID 0000.0001) %MON forcing_empmr_sd             =   0.0000000000000E+00
(PID.TID 0000.0001) %MON forcing_empmr_del2           =   0.0000000000000E+00
(PID.TID 0000.0001) %MON forcing_fu_max               =   2.0260765241348E-07
(PID.TID 0000.0001) %MON forcing_fu_min               =  -2.0260702552313E-07
(PID.TID 0000.0001) %MON forcing_fu_mean              =   1.3136822590712E-13
(PID.TID 0000.0001) %MON forcing_fu_sd                =   9.4832432104897E-08
(PID.TID 0000.0001) %MON forcing_fu_del2              =   4.9016315635958E-10
(PID.TID 0000.0001) %MON forcing_fv_max               =   0.0000000000000E+00
(PID.TID 0000.0001) %MON forcing_fv_min               =  -1.2493753123438E-05
(PID.TID 0000.0001) %MON forcing_fv_mean              =  -8.0035777244587E-07
(PID.TID 0000.0001) %MON forcing_fv_sd                =   1.2218042972001E-06
(PID.TID 0000.0001) %MON forcing_fv_del2              =   1.8381807502739E-08
(PID.TID 0000.0001) %MON trAdv_CFL_u_max              =   0.0000000000000E+00
(PID.TID 0000.0001) %MON trAdv_CFL_v_max              =   0.0000000000000E+00
(PID.TID 0000.0001) %MON trAdv_CFL_w_max              =   0.0000000000000E+00
(PID.TID 0000.0001) %MON advcfl_uvel_max              =   0.0000000000000E+00
(PID.TID 0000.0001) %MON advcfl_vvel_max              =   0.0000000000000E+00
(PID.TID 0000.0001) %MON advcfl_wvel_max              =   0.0000000000000E+00
(PID.TID 0000.0001) %MON advcfl_W_hf_max              =   0.0000000000000E+00
(PID.TID 0000.0001) %MON pe_b_mean                    =   0.0000000000000E+00
(PID.TID 0000.0001) %MON ke_max                       =   0.0000000000000E+00
(PID.TID 0000.0001) %MON ke_mean                      =   0.0000000000000E+00
(PID.TID 0000.0001) %MON ke_vol                       =   4.6550000000000E+10
(PID.TID 0000.0001) %MON vort_r_min                   =   0.0000000000000E+00
(PID.TID 0000.0001) %MON vort_r_max                   =   0.0000000000000E+00
(PID.TID 0000.0001) %MON vort_a_mean                  =   0.0000000000000E+00
(PID.TID 0000.0001) %MON vort_a_sd                    =   0.0000000000000E+00
(PID.TID 0000.0001) %MON vort_p_mean                  =   0.0000000000000E+00
(PID.TID 0000.0001) %MON vort_p_sd                    =   0.0000000000000E+00
(PID.TID 0000.0001) %MON surfExpan_theta_mean         =   0.0000000000000E+00
(PID.TID 0000.0001) %MON surfExpan_salt_mean          =   0.0000000000000E+00
(PID.TID 0000.0001) // =======================================================
(PID.TID 0000.0001) // End MONITOR dynamic field statistics
(PID.TID 0000.0001) // =======================================================
(PID.TID 0000.0001) // =======================================================
(PID.TID 0000.0001) // Begin OBCS MONITOR field statistics
(PID.TID 0000.0001) // =======================================================
(PID.TID 0000.0001) %MON obc_E_uVel_max               =   0.0000000000000E+00
(PID.TID 0000.0001) %MON obc_E_uVel_min               =   0.0000000000000E+00
(PID.TID 0000.0001) %MON obc_E_uVel_mean              =   0.0000000000000E+00
(PID.TID 0000.0001) %MON obc_E_uVel_sd                =   0.0000000000000E+00
(PID.TID 0000.0001) %MON obc_E_uVel_Int               =   0.0000000000000E+00
(PID.TID 0000.0001) %MON obc_W_uVel_max               =   0.0000000000000E+00
(PID.TID 0000.0001) %MON obc_W_uVel_min               =   0.0000000000000E+00
(PID.TID 0000.0001) %MON obc_W_uVel_mean              =   0.0000000000000E+00
(PID.TID 0000.0001) %MON obc_W_uVel_sd                =   0.0000000000000E+00
(PID.TID 0000.0001) %MON obc_W_uVel_Int               =   0.0000000000000E+00
(PID.TID 0000.0001) %MON obc_N_vVel_max               =   0.0000000000000E+00
(PID.TID 0000.0001) %MON obc_N_vVel_min               =   0.0000000000000E+00
(PID.TID 0000.0001) %MON obc_N_vVel_mean              =   0.0000000000000E+00
(PID.TID 0000.0001) %MON obc_N_vVel_sd                =   0.0000000000000E+00
(PID.TID 0000.0001) %MON obc_N_vVel_Int               =   0.0000000000000E+00
(PID.TID 0000.0001) // =======================================================
(PID.TID 0000.0001) // End OBCS MONITOR field statistics
(PID.TID 0000.0001) // =======================================================
(PID.TID 0000.0001) // =======================================================
(PID.TID 0000.0001) // Begin MONITOR SEAICE statistics
(PID.TID 0000.0001) // =======================================================
(PID.TID 0000.0001) %MON seaice_tsnumber              =                     1
(PID.TID 0000.0001) %MON seaice_time_sec              =   1.0000000000000E-01
(PID.TID 0000.0001) %MON seaice_uice_max              =   8.6366203171347E-07
(PID.TID 0000.0001) %MON seaice_uice_min              =  -8.6366106845387E-07
(PID.TID 0000.0001) %MON seaice_uice_mean             =   6.2798861064064E-13
(PID.TID 0000.0001) %MON seaice_uice_sd               =   4.0704827583915E-07
(PID.TID 0000.0001) %MON seaice_uice_del2             =   4.0375904106945E-09
(PID.TID 0000.0001) %MON seaice_vice_max              =   0.0000000000000E+00
(PID.TID 0000.0001) %MON seaice_vice_min              =  -4.9975012493753E-05
(PID.TID 0000.0001) %MON seaice_vice_mean             =  -3.4555183629701E-06
(PID.TID 0000.0001) %MON seaice_vice_sd               =   5.1955122290731E-06
(PID.TID 0000.0001) %MON seaice_vice_del2             =   7.5319142710491E-08
(PID.TID 0000.0001) %MON seaice_area_max              =   1.0000000000000E+00
(PID.TID 0000.0001) %MON seaice_area_min              =   0.0000000000000E+00
(PID.TID 0000.0001) %MON seaice_area_mean             =   8.4210526315789E-01
(PID.TID 0000.0001) %MON seaice_area_sd               =   3.6464227527766E-01
(PID.TID 0000.0001) %MON seaice_area_del2             =   5.3165923397485E-03
(PID.TID 0000.0001) %MON seaice_heff_max              =   1.0000000172597E+00
(PID.TID 0000.0001) %MON seaice_heff_min              =   0.0000000000000E+00
(PID.TID 0000.0001) %MON seaice_heff_mean             =   8.4210526331422E-01
(PID.TID 0000.0001) %MON seaice_heff_sd               =   3.6464227534535E-01
(PID.TID 0000.0001) %MON seaice_heff_del2             =   5.3165923407168E-03
(PID.TID 0000.0001) %MON seaice_hsnow_max             =   2.0000000345195E-01
(PID.TID 0000.0001) %MON seaice_hsnow_min             =   0.0000000000000E+00
(PID.TID 0000.0001) %MON seaice_hsnow_mean            =   1.6842105266284E-01
(PID.TID 0000.0001) %MON seaice_hsnow_sd              =   7.2928455069069E-02
(PID.TID 0000.0001) %MON seaice_hsnow_del2            =   1.0633184681434E-03
(PID.TID 0000.0001) // =======================================================
(PID.TID 0000.0001) // End MONITOR SEAICE statistics
(PID.TID 0000.0001) // =======================================================
 Computing Diagnostic #    216  SIsig11      Counter:       1   Parms: SM      M1      
 Computing Diagnostic #    217  SIsig22      Counter:       1   Parms: SM      M1      
 Computing Diagnostic #    155  SIuice       Counter:       1   Parms: UU      M1      
           Vector  Mate for  SIuice       Diagnostic #    156  SIvice   exists 
 Computing Diagnostic #    156  SIvice       Counter:       1   Parms: VV      M1      
           Vector  Mate for  SIvice       Diagnostic #    155  SIuice   exists 
 Computing Diagnostic #    146  SIarea       Counter:       1   Parms: SM      M1      
 Computing Diagnostic #    149  SIheff       Counter:       1   Parms: SM      M1      
 Computing Diagnostic #    219  SIeps11      Counter:       1   Parms: SM      M1      
 Computing Diagnostic #    220  SIeps22      Counter:       1   Parms: SM      M1      
 Computing Diagnostic #    218  SIsig12      Counter:       1   Parms: SM      M1      
 Computing Diagnostic #    221  SIeps12      Counter:       1   Parms: SM      M1      
 SEAICE_LSR: Residual Initial ipass,Uice,Vice=    1  5.36646500E+00  2.02643747E+00
 SEAICE_LSR (ipass=   1) iters,dU,Resid=   172  9.68273773E-12  4.01286635E-03
 SEAICE_LSR (ipass=   1) iters,dV,Resid=  1500  2.40975496E-10  1.25264821E-01
 SEAICE_LSR: Residual Initial ipass,Uice,Vice=    2  5.35651243E+00  1.93844002E+00
 SEAICE_LSR (ipass=   2) iters,dU,Resid=   168  9.32999473E-12  3.55873691E-03
 SEAICE_LSR (ipass=   2) iters,dV,Resid=  1500  2.30950188E-10  1.11652406E-01
 SEAICE_LSR: Residual Initial ipass,Uice,Vice=    3  5.34458131E+00  1.87046203E+00
 SEAICE_LSR (ipass=   3) iters,dU,Resid=   162  9.77888770E-12  3.43263211E-03
 SEAICE_LSR (ipass=   3) iters,dV,Resid=  1500  2.21629092E-10  1.00011494E-01
 SEAICE_LSR: Residual Initial ipass,Uice,Vice=    4  5.33269724E+00  1.81555824E+00
 SEAICE_LSR (ipass=   4) iters,dU,Resid=   158  9.56388583E-12  3.08873553E-03
 SEAICE_LSR (ipass=   4) iters,dV,Resid=  1500  2.12746077E-10  8.99179984E-02
 SEAICE_LSR: Residual Initial ipass,Uice,Vice=    5  5.32166820E+00  1.77022173E+00
 SEAICE_LSR (ipass=   5) iters,dU,Resid=   154  9.47203335E-12  2.80938893E-03
 SEAICE_LSR (ipass=   5) iters,dV,Resid=  1500  2.04154542E-10  8.10755183E-02
 SEAICE_LSR: Residual Initial ipass,Uice,Vice=    6  5.31182079E+00  1.73218850E+00
 SEAICE_LSR (ipass=   6) iters,dU,Resid=   150  9.46796872E-12  2.58842248E-03
 SEAICE_LSR (ipass=   6) iters,dV,Resid=  1500  1.95773742E-10  7.32680879E-02
 SEAICE_LSR: Residual Initial ipass,Uice,Vice=    7  5.30323658E+00  1.69990216E+00
 SEAICE_LSR (ipass=   7) iters,dU,Resid=   146  9.61621861E-12  2.41924730E-03
 SEAICE_LSR (ipass=   7) iters,dV,Resid=  1500  1.87564210E-10  6.63330109E-02
 SEAICE_LSR: Residual Initial ipass,Uice,Vice=    8  5.29587073E+00  1.67224610E+00
 SEAICE_LSR (ipass=   8) iters,dU,Resid=   142  9.86387859E-12  2.29592770E-03
 SEAICE_LSR (ipass=   8) iters,dV,Resid=  1500  1.79510958E-10  6.01439117E-02
 SEAICE_LSR: Residual Initial ipass,Uice,Vice=    9  5.28961601E+00  1.64839229E+00
 SEAICE_LSR (ipass=   9) iters,dU,Resid=   140  9.30466764E-12  2.00447400E-03
 SEAICE_LSR (ipass=   9) iters,dV,Resid=  1500  1.71613144E-10  5.46000327E-02
 SEAICE_LSR: Residual Initial ipass,Uice,Vice=   10  5.28433757E+00  1.62773062E+00
 SEAICE_LSR (ipass=  10) iters,dU,Resid=   136  9.80444419E-12  1.95824110E-03
 SEAICE_LSR (ipass=  10) iters,dV,Resid=  1500  1.63877555E-10  4.96190316E-02
(PID.TID 0000.0001) // =======================================================
(PID.TID 0000.0001) // Begin MONITOR dynamic field statistics
(PID.TID 0000.0001) // =======================================================
(PID.TID 0000.0001) %MON time_tsnumber                =                     2
(PID.TID 0000.0001) %MON time_secondsf                =   2.0000000000000E-01
(PID.TID 0000.0001) %MON dynstat_eta_max              =   0.0000000000000E+00
(PID.TID 0000.0001) %MON dynstat_eta_min              =   0.0000000000000E+00
(PID.TID 0000.0001) %MON dynstat_eta_mean             =   0.0000000000000E+00
(PID.TID 0000.0001) %MON dynstat_eta_sd               =   0.0000000000000E+00
(PID.TID 0000.0001) %MON dynstat_eta_del2             =   0.0000000000000E+00
(PID.TID 0000.0001) %MON dynstat_uvel_max             =   0.0000000000000E+00
(PID.TID 0000.0001) %MON dynstat_uvel_min             =   0.0000000000000E+00
(PID.TID 0000.0001) %MON dynstat_uvel_mean            =   0.0000000000000E+00
(PID.TID 0000.0001) %MON dynstat_uvel_sd              =   0.0000000000000E+00
(PID.TID 0000.0001) %MON dynstat_uvel_del2            =   0.0000000000000E+00
(PID.TID 0000.0001) %MON dynstat_vvel_max             =   0.0000000000000E+00
(PID.TID 0000.0001) %MON dynstat_vvel_min             =   0.0000000000000E+00
(PID.TID 0000.0001) %MON dynstat_vvel_mean            =   0.0000000000000E+00
(PID.TID 0000.0001) %MON dynstat_vvel_sd              =   0.0000000000000E+00
(PID.TID 0000.0001) %MON dynstat_vvel_del2            =   0.0000000000000E+00
(PID.TID 0000.0001) %MON dynstat_wvel_max             =  -0.0000000000000E+00
(PID.TID 0000.0001) %MON dynstat_wvel_min             =  -0.0000000000000E+00
(PID.TID 0000.0001) %MON dynstat_wvel_mean            =   0.0000000000000E+00
(PID.TID 0000.0001) %MON dynstat_wvel_sd              =   0.0000000000000E+00
(PID.TID 0000.0001) %MON dynstat_wvel_del2            =   0.0000000000000E+00
(PID.TID 0000.0001) %MON dynstat_theta_max            =   2.4000000000000E+01
(PID.TID 0000.0001) %MON dynstat_theta_min            =   2.4000000000000E+01
(PID.TID 0000.0001) %MON dynstat_theta_mean           =   2.4000000000000E+01
(PID.TID 0000.0001) %MON dynstat_theta_sd             =   0.0000000000000E+00
(PID.TID 0000.0001) %MON dynstat_theta_del2           =   0.0000000000000E+00
(PID.TID 0000.0001) %MON dynstat_salt_max             =   3.4650000000000E+01
(PID.TID 0000.0001) %MON dynstat_salt_min             =   3.4650000000000E+01
(PID.TID 0000.0001) %MON dynstat_salt_mean            =   3.4650000000000E+01
(PID.TID 0000.0001) %MON dynstat_salt_sd              =   0.0000000000000E+00
(PID.TID 0000.0001) %MON dynstat_salt_del2            =   0.0000000000000E+00
(PID.TID 0000.0001) %MON dynstat_sst_max              =   2.4000000000000E+01
(PID.TID 0000.0001) %MON dynstat_sst_min              =   2.4000000000000E+01
(PID.TID 0000.0001) %MON dynstat_sst_mean             =   2.4000000000000E+01
(PID.TID 0000.0001) %MON dynstat_sst_sd               =   0.0000000000000E+00
(PID.TID 0000.0001) %MON dynstat_sst_del2             =   0.0000000000000E+00
(PID.TID 0000.0001) %MON dynstat_sss_max              =   3.4650000000000E+01
(PID.TID 0000.0001) %MON dynstat_sss_min              =   3.4650000000000E+01
(PID.TID 0000.0001) %MON dynstat_sss_mean             =   3.4650000000000E+01
(PID.TID 0000.0001) %MON dynstat_sss_sd               =   0.0000000000000E+00
(PID.TID 0000.0001) %MON dynstat_sss_del2             =   0.0000000000000E+00
(PID.TID 0000.0001) %MON forcing_qnet_max             =   0.0000000000000E+00
(PID.TID 0000.0001) %MON forcing_qnet_min             =   0.0000000000000E+00
(PID.TID 0000.0001) %MON forcing_qnet_mean            =   0.0000000000000E+00
(PID.TID 0000.0001) %MON forcing_qnet_sd              =   0.0000000000000E+00
(PID.TID 0000.0001) %MON forcing_qnet_del2            =   0.0000000000000E+00
(PID.TID 0000.0001) %MON forcing_qsw_max              =   0.0000000000000E+00
(PID.TID 0000.0001) %MON forcing_qsw_min              =   0.0000000000000E+00
(PID.TID 0000.0001) %MON forcing_qsw_mean             =   0.0000000000000E+00
(PID.TID 0000.0001) %MON forcing_qsw_sd               =   0.0000000000000E+00
(PID.TID 0000.0001) %MON forcing_qsw_del2             =   0.0000000000000E+00
(PID.TID 0000.0001) %MON forcing_empmr_max            =   0.0000000000000E+00
(PID.TID 0000.0001) %MON forcing_empmr_min            =   0.0000000000000E+00
(PID.TID 0000.0001) %MON forcing_empmr_mean           =   0.0000000000000E+00
(PID.TID 0000.0001) %MON forcing_empmr_sd             =   0.0000000000000E+00
(PID.TID 0000.0001) %MON forcing_empmr_del2           =   0.0000000000000E+00
(PID.TID 0000.0001) %MON forcing_fu_max               =   4.5995237596640E-07
(PID.TID 0000.0001) %MON forcing_fu_min               =  -4.5995142385811E-07
(PID.TID 0000.0001) %MON forcing_fu_mean              =   3.2706597395437E-13
(PID.TID 0000.0001) %MON forcing_fu_sd                =   2.1572205150828E-07
(PID.TID 0000.0001) %MON forcing_fu_del2              =   1.1051891017331E-09
(PID.TID 0000.0001) %MON forcing_fv_max               =   0.0000000000000E+00
(PID.TID 0000.0001) %MON forcing_fv_min               =  -2.4987506246879E-05
(PID.TID 0000.0001) %MON forcing_fv_mean              =  -1.5392146927082E-06
(PID.TID 0000.0001) %MON forcing_fv_sd                =   2.4292772408045E-06
(PID.TID 0000.0001) %MON forcing_fv_del2              =   3.6881644965582E-08
(PID.TID 0000.0001) %MON trAdv_CFL_u_max              =   0.0000000000000E+00
(PID.TID 0000.0001) %MON trAdv_CFL_v_max              =   0.0000000000000E+00
(PID.TID 0000.0001) %MON trAdv_CFL_w_max              =   0.0000000000000E+00
(PID.TID 0000.0001) %MON advcfl_uvel_max              =   0.0000000000000E+00
(PID.TID 0000.0001) %MON advcfl_vvel_max              =   0.0000000000000E+00
(PID.TID 0000.0001) %MON advcfl_wvel_max              =   0.0000000000000E+00
(PID.TID 0000.0001) %MON advcfl_W_hf_max              =   0.0000000000000E+00
(PID.TID 0000.0001) %MON pe_b_mean                    =   0.0000000000000E+00
(PID.TID 0000.0001) %MON ke_max                       =   0.0000000000000E+00
(PID.TID 0000.0001) %MON ke_mean                      =   0.0000000000000E+00
(PID.TID 0000.0001) %MON ke_vol                       =   4.6550000000000E+10
(PID.TID 0000.0001) %MON vort_r_min                   =   0.0000000000000E+00
(PID.TID 0000.0001) %MON vort_r_max                   =   0.0000000000000E+00
(PID.TID 0000.0001) %MON vort_a_mean                  =   0.0000000000000E+00
(PID.TID 0000.0001) %MON vort_a_sd                    =   0.0000000000000E+00
(PID.TID 0000.0001) %MON vort_p_mean                  =   0.0000000000000E+00
(PID.TID 0000.0001) %MON vort_p_sd                    =   0.0000000000000E+00
(PID.TID 0000.0001) %MON surfExpan_theta_mean         =   0.0000000000000E+00
(PID.TID 0000.0001) %MON surfExpan_salt_mean          =   0.0000000000000E+00
(PID.TID 0000.0001) // =======================================================
(PID.TID 0000.0001) // End MONITOR dynamic field statistics
(PID.TID 0000.0001) // =======================================================
(PID.TID 0000.0001) // =======================================================
(PID.TID 0000.0001) // Begin OBCS MONITOR field statistics
(PID.TID 0000.0001) // =======================================================
(PID.TID 0000.0001) %MON obc_E_uVel_max               =   0.0000000000000E+00
(PID.TID 0000.0001) %MON obc_E_uVel_min               =   0.0000000000000E+00
(PID.TID 0000.0001) %MON obc_E_uVel_mean              =   0.0000000000000E+00
(PID.TID 0000.0001) %MON obc_E_uVel_sd                =   0.0000000000000E+00
(PID.TID 0000.0001) %MON obc_E_uVel_Int               =   0.0000000000000E+00
(PID.TID 0000.0001) %MON obc_W_uVel_max               =   0.0000000000000E+00
(PID.TID 0000.0001) %MON obc_W_uVel_min               =   0.0000000000000E+00
(PID.TID 0000.0001) %MON obc_W_uVel_mean              =   0.0000000000000E+00
(PID.TID 0000.0001) %MON obc_W_uVel_sd                =   0.0000000000000E+00
(PID.TID 0000.0001) %MON obc_W_uVel_Int               =   0.0000000000000E+00
(PID.TID 0000.0001) %MON obc_N_vVel_max               =   0.0000000000000E+00
(PID.TID 0000.0001) %MON obc_N_vVel_min               =   0.0000000000000E+00
(PID.TID 0000.0001) %MON obc_N_vVel_mean              =   0.0000000000000E+00
(PID.TID 0000.0001) %MON obc_N_vVel_sd                =   0.0000000000000E+00
(PID.TID 0000.0001) %MON obc_N_vVel_Int               =   0.0000000000000E+00
(PID.TID 0000.0001) // =======================================================
(PID.TID 0000.0001) // End OBCS MONITOR field statistics
(PID.TID 0000.0001) // =======================================================
(PID.TID 0000.0001) // =======================================================
(PID.TID 0000.0001) // Begin MONITOR SEAICE statistics
(PID.TID 0000.0001) // =======================================================
(PID.TID 0000.0001) %MON seaice_tsnumber              =                     2
(PID.TID 0000.0001) %MON seaice_time_sec              =   2.0000000000000E-01
(PID.TID 0000.0001) %MON seaice_uice_max              =   1.9553532596611E-06
(PID.TID 0000.0001) %MON seaice_uice_min              =  -1.9553503101336E-06
(PID.TID 0000.0001) %MON seaice_uice_mean             =   1.5328594116238E-12
(PID.TID 0000.0001) %MON seaice_uice_sd               =   9.2474639236467E-07
(PID.TID 0000.0001) %MON seaice_uice_del2             =   9.0897636867054E-09
(PID.TID 0000.0001) %MON seaice_vice_max              =   0.0000000000000E+00
(PID.TID 0000.0001) %MON seaice_vice_min              =  -9.9950024987516E-05
(PID.TID 0000.0001) %MON seaice_vice_mean             =  -6.6499081655690E-06
(PID.TID 0000.0001) %MON seaice_vice_sd               =   1.0345347655939E-05
(PID.TID 0000.0001) %MON seaice_vice_del2             =   1.5113243485219E-07
(PID.TID 0000.0001) %MON seaice_area_max              =   1.0000000000000E+00
(PID.TID 0000.0001) %MON seaice_area_min              =   0.0000000000000E+00
(PID.TID 0000.0001) %MON seaice_area_mean             =   8.4210526315789E-01
(PID.TID 0000.0001) %MON seaice_area_sd               =   3.6464227527766E-01
(PID.TID 0000.0001) %MON seaice_area_del2             =   5.3165923397485E-03
(PID.TID 0000.0001) %MON seaice_heff_max              =   1.0000000520805E+00
(PID.TID 0000.0001) %MON seaice_heff_min              =   0.0000000000000E+00
(PID.TID 0000.0001) %MON seaice_heff_mean             =   8.4210526362310E-01
(PID.TID 0000.0001) %MON seaice_heff_sd               =   3.6464227547910E-01
(PID.TID 0000.0001) %MON seaice_heff_del2             =   5.3165923426412E-03
(PID.TID 0000.0001) %MON seaice_hsnow_max             =   2.0000001041610E-01
(PID.TID 0000.0001) %MON seaice_hsnow_min             =   0.0000000000000E+00
(PID.TID 0000.0001) %MON seaice_hsnow_mean            =   1.6842105272462E-01
(PID.TID 0000.0001) %MON seaice_hsnow_sd              =   7.2928455095820E-02
(PID.TID 0000.0001) %MON seaice_hsnow_del2            =   1.0633184685282E-03
(PID.TID 0000.0001) // =======================================================
(PID.TID 0000.0001) // End MONITOR SEAICE statistics
(PID.TID 0000.0001) // =======================================================
 Computing Diagnostic #    216  SIsig11      Counter:       1   Parms: SM      M1      
 Computing Diagnostic #    217  SIsig22      Counter:       1   Parms: SM      M1      
 Computing Diagnostic #    155  SIuice       Counter:       1   Parms: UU      M1      
           Vector  Mate for  SIuice       Diagnostic #    156  SIvice   exists 
 Computing Diagnostic #    156  SIvice       Counter:       1   Parms: VV      M1      
           Vector  Mate for  SIvice       Diagnostic #    155  SIuice   exists 
 Computing Diagnostic #    146  SIarea       Counter:       1   Parms: SM      M1      
 Computing Diagnostic #    149  SIheff       Counter:       1   Parms: SM      M1      
 Computing Diagnostic #    219  SIeps11      Counter:       1   Parms: SM      M1      
 Computing Diagnostic #    220  SIeps22      Counter:       1   Parms: SM      M1      
 Computing Diagnostic #    218  SIsig12      Counter:       1   Parms: SM      M1      
 Computing Diagnostic #    221  SIeps12      Counter:       1   Parms: SM      M1      
 SEAICE_LSR: Residual Initial ipass,Uice,Vice=    1  5.27659862E+00  1.59412340E+00
 SEAICE_LSR (ipass=   1) iters,dU,Resid=   132  9.17961739E-12  1.59103634E-03
 SEAICE_LSR (ipass=   1) iters,dV,Resid=  1500  1.59444946E-10  4.37669544E-02
 SEAICE_LSR: Residual Initial ipass,Uice,Vice=    2  5.28372757E+00  1.57072527E+00
 SEAICE_LSR (ipass=   2) iters,dU,Resid=   130  9.13238562E-12  1.48186552E-03
 SEAICE_LSR (ipass=   2) iters,dV,Resid=  1500  1.52153645E-10  3.99713039E-02
 SEAICE_LSR: Residual Initial ipass,Uice,Vice=    3  5.28713839E+00  1.55344165E+00
 SEAICE_LSR (ipass=   3) iters,dU,Resid=   128  9.08883991E-12  1.38573342E-03
 SEAICE_LSR (ipass=   3) iters,dV,Resid=  1500  1.45117824E-10  3.65353043E-02
 SEAICE_LSR: Residual Initial ipass,Uice,Vice=    4  5.28871253E+00  1.53937303E+00
 SEAICE_LSR (ipass=   4) iters,dU,Resid=   126  9.12908672E-12  1.30402037E-03
 SEAICE_LSR (ipass=   4) iters,dV,Resid=  1500  1.38309752E-10  3.34170750E-02
 SEAICE_LSR: Residual Initial ipass,Uice,Vice=    5  5.28931756E+00  1.52758694E+00
 SEAICE_LSR (ipass=   5) iters,dU,Resid=   124  9.20264403E-12  1.23634105E-03
 SEAICE_LSR (ipass=   5) iters,dV,Resid=  1500  1.31720122E-10  3.05825790E-02
 SEAICE_LSR: Residual Initial ipass,Uice,Vice=    6  5.28940829E+00  1.51758737E+00
 SEAICE_LSR (ipass=   6) iters,dU,Resid=   122  9.31775446E-12  1.18162816E-03
 SEAICE_LSR (ipass=   6) iters,dV,Resid=  1500  1.25347703E-10  2.80030081E-02
 SEAICE_LSR: Residual Initial ipass,Uice,Vice=    7  5.28923309E+00  1.50904593E+00
 SEAICE_LSR (ipass=   7) iters,dU,Resid=   120  9.48054197E-12  1.13865158E-03
 SEAICE_LSR (ipass=   7) iters,dV,Resid=  1500  1.19194249E-10  2.56533466E-02
 SEAICE_LSR: Residual Initial ipass,Uice,Vice=    8  5.28892853E+00  1.50172496E+00
 SEAICE_LSR (ipass=   8) iters,dU,Resid=   118  9.69612464E-12  1.10625323E-03
 SEAICE_LSR (ipass=   8) iters,dV,Resid=  1500  1.13262064E-10  2.35115393E-02
 SEAICE_LSR: Residual Initial ipass,Uice,Vice=    9  5.28856878E+00  1.49544409E+00
 SEAICE_LSR (ipass=   9) iters,dU,Resid=   116  9.96934367E-12  1.08344240E-03
 SEAICE_LSR (ipass=   9) iters,dV,Resid=  1500  1.07552894E-10  2.15579669E-02
 SEAICE_LSR: Residual Initial ipass,Uice,Vice=   10  5.28819280E+00  1.49006186E+00
 SEAICE_LSR (ipass=  10) iters,dU,Resid=   116  9.11879388E-12  9.43264147E-04
 SEAICE_LSR (ipass=  10) iters,dV,Resid=  1500  1.02067470E-10  1.97750818E-02
(PID.TID 0000.0001) // =======================================================
(PID.TID 0000.0001) // Begin MONITOR dynamic field statistics
(PID.TID 0000.0001) // =======================================================
(PID.TID 0000.0001) %MON time_tsnumber                =                     3
(PID.TID 0000.0001) %MON time_secondsf                =   3.0000000000000E-01
(PID.TID 0000.0001) %MON dynstat_eta_max              =   0.0000000000000E+00
(PID.TID 0000.0001) %MON dynstat_eta_min              =   0.0000000000000E+00
(PID.TID 0000.0001) %MON dynstat_eta_mean             =   0.0000000000000E+00
(PID.TID 0000.0001) %MON dynstat_eta_sd               =   0.0000000000000E+00
(PID.TID 0000.0001) %MON dynstat_eta_del2             =   0.0000000000000E+00
(PID.TID 0000.0001) %MON dynstat_uvel_max             =   0.0000000000000E+00
(PID.TID 0000.0001) %MON dynstat_uvel_min             =   0.0000000000000E+00
(PID.TID 0000.0001) %MON dynstat_uvel_mean            =   0.0000000000000E+00
(PID.TID 0000.0001) %MON dynstat_uvel_sd              =   0.0000000000000E+00
(PID.TID 0000.0001) %MON dynstat_uvel_del2            =   0.0000000000000E+00
(PID.TID 0000.0001) %MON dynstat_vvel_max             =   0.0000000000000E+00
(PID.TID 0000.0001) %MON dynstat_vvel_min             =   0.0000000000000E+00
(PID.TID 0000.0001) %MON dynstat_vvel_mean            =   0.0000000000000E+00
(PID.TID 0000.0001) %MON dynstat_vvel_sd              =   0.0000000000000E+00
(PID.TID 0000.0001) %MON dynstat_vvel_del2            =   0.0000000000000E+00
(PID.TID 0000.0001) %MON dynstat_wvel_max             =  -0.0000000000000E+00
(PID.TID 0000.0001) %MON dynstat_wvel_min             =  -0.0000000000000E+00
(PID.TID 0000.0001) %MON dynstat_wvel_mean            =   0.0000000000000E+00
(PID.TID 0000.0001) %MON dynstat_wvel_sd              =   0.0000000000000E+00
(PID.TID 0000.0001) %MON dynstat_wvel_del2            =   0.0000000000000E+00
(PID.TID 0000.0001) %MON dynstat_theta_max            =   2.4000000000000E+01
(PID.TID 0000.0001) %MON dynstat_theta_min            =   2.4000000000000E+01
(PID.TID 0000.0001) %MON dynstat_theta_mean           =   2.4000000000000E+01
(PID.TID 0000.0001) %MON dynstat_theta_sd             =   0.0000000000000E+00
(PID.TID 0000.0001) %MON dynstat_theta_del2           =   0.0000000000000E+00
(PID.TID 0000.0001) %MON dynstat_salt_max             =   3.4650000000000E+01
(PID.TID 0000.0001) %MON dynstat_salt_min             =   3.4650000000000E+01
(PID.TID 0000.0001) %MON dynstat_salt_mean            =   3.4650000000000E+01
(PID.TID 0000.0001) %MON dynstat_salt_sd              =   0.0000000000000E+00
(PID.TID 0000.0001) %MON dynstat_salt_del2            =   0.0000000000000E+00
(PID.TID 0000.0001) %MON dynstat_sst_max              =   2.4000000000000E+01
(PID.TID 0000.0001) %MON dynstat_sst_min              =   2.4000000000000E+01
(PID.TID 0000.0001) %MON dynstat_sst_mean             =   2.4000000000000E+01
(PID.TID 0000.0001) %MON dynstat_sst_sd               =   0.0000000000000E+00
(PID.TID 0000.0001) %MON dynstat_sst_del2             =   0.0000000000000E+00
(PID.TID 0000.0001) %MON dynstat_sss_max              =   3.4650000000000E+01
(PID.TID 0000.0001) %MON dynstat_sss_min              =   3.4650000000000E+01
(PID.TID 0000.0001) %MON dynstat_sss_mean             =   3.4650000000000E+01
(PID.TID 0000.0001) %MON dynstat_sss_sd               =   0.0000000000000E+00
(PID.TID 0000.0001) %MON dynstat_sss_del2             =   0.0000000000000E+00
(PID.TID 0000.0001) %MON forcing_qnet_max             =   0.0000000000000E+00
(PID.TID 0000.0001) %MON forcing_qnet_min             =   0.0000000000000E+00
(PID.TID 0000.0001) %MON forcing_qnet_mean            =   0.0000000000000E+00
(PID.TID 0000.0001) %MON forcing_qnet_sd              =   0.0000000000000E+00
(PID.TID 0000.0001) %MON forcing_qnet_del2            =   0.0000000000000E+00
(PID.TID 0000.0001) %MON forcing_qsw_max              =   0.0000000000000E+00
(PID.TID 0000.0001) %MON forcing_qsw_min              =   0.0000000000000E+00
(PID.TID 0000.0001) %MON forcing_qsw_mean             =   0.0000000000000E+00
(PID.TID 0000.0001) %MON forcing_qsw_sd               =   0.0000000000000E+00
(PID.TID 0000.0001) %MON forcing_qsw_del2             =   0.0000000000000E+00
(PID.TID 0000.0001) %MON forcing_empmr_max            =   0.0000000000000E+00
(PID.TID 0000.0001) %MON forcing_empmr_min            =   0.0000000000000E+00
(PID.TID 0000.0001) %MON forcing_empmr_mean           =   0.0000000000000E+00
(PID.TID 0000.0001) %MON forcing_empmr_sd             =   0.0000000000000E+00
(PID.TID 0000.0001) %MON forcing_empmr_del2           =   0.0000000000000E+00
(PID.TID 0000.0001) %MON forcing_fu_max               =   7.5186926915652E-07
(PID.TID 0000.0001) %MON forcing_fu_min               =  -7.5186811069896E-07
(PID.TID 0000.0001) %MON forcing_fu_mean              =   5.0647215785338E-13
(PID.TID 0000.0001) %MON forcing_fu_sd                =   3.5590537840975E-07
(PID.TID 0000.0001) %MON forcing_fu_del2              =   1.8148944861123E-09
(PID.TID 0000.0001) %MON forcing_fv_max               =   0.0000000000000E+00
(PID.TID 0000.0001) %MON forcing_fv_min               =  -3.7481259370312E-05
(PID.TID 0000.0001) %MON forcing_fv_mean              =  -2.3477353595479E-06
(PID.TID 0000.0001) %MON forcing_fv_sd                =   3.6548536401240E-06
(PID.TID 0000.0001) %MON forcing_fv_del2              =   5.5293519970991E-08
(PID.TID 0000.0001) %MON trAdv_CFL_u_max              =   0.0000000000000E+00
(PID.TID 0000.0001) %MON trAdv_CFL_v_max              =   0.0000000000000E+00
(PID.TID 0000.0001) %MON trAdv_CFL_w_max              =   0.0000000000000E+00
(PID.TID 0000.0001) %MON advcfl_uvel_max              =   0.0000000000000E+00
(PID.TID 0000.0001) %MON advcfl_vvel_max              =   0.0000000000000E+00
(PID.TID 0000.0001) %MON advcfl_wvel_max              =   0.0000000000000E+00
(PID.TID 0000.0001) %MON advcfl_W_hf_max              =   0.0000000000000E+00
(PID.TID 0000.0001) %MON pe_b_mean                    =   0.0000000000000E+00
(PID.TID 0000.0001) %MON ke_max                       =   0.0000000000000E+00
(PID.TID 0000.0001) %MON ke_mean                      =   0.0000000000000E+00
(PID.TID 0000.0001) %MON ke_vol                       =   4.6550000000000E+10
(PID.TID 0000.0001) %MON vort_r_min                   =   0.0000000000000E+00
(PID.TID 0000.0001) %MON vort_r_max                   =   0.0000000000000E+00
(PID.TID 0000.0001) %MON vort_a_mean                  =   0.0000000000000E+00
(PID.TID 0000.0001) %MON vort_a_sd                    =   0.0000000000000E+00
(PID.TID 0000.0001) %MON vort_p_mean                  =   0.0000000000000E+00
(PID.TID 0000.0001) %MON vort_p_sd                    =   0.0000000000000E+00
(PID.TID 0000.0001) %MON surfExpan_theta_mean         =   0.0000000000000E+00
(PID.TID 0000.0001) %MON surfExpan_salt_mean          =   0.0000000000000E+00
(PID.TID 0000.0001) // =======================================================
(PID.TID 0000.0001) // End MONITOR dynamic field statistics
(PID.TID 0000.0001) // =======================================================
(PID.TID 0000.0001) // =======================================================
(PID.TID 0000.0001) // Begin OBCS MONITOR field statistics
(PID.TID 0000.0001) // =======================================================
(PID.TID 0000.0001) %MON obc_E_uVel_max               =   0.0000000000000E+00
(PID.TID 0000.0001) %MON obc_E_uVel_min               =   0.0000000000000E+00
(PID.TID 0000.0001) %MON obc_E_uVel_mean              =   0.0000000000000E+00
(PID.TID 0000.0001) %MON obc_E_uVel_sd                =   0.0000000000000E+00
(PID.TID 0000.0001) %MON obc_E_uVel_Int               =   0.0000000000000E+00
(PID.TID 0000.0001) %MON obc_W_uVel_max               =   0.0000000000000E+00
(PID.TID 0000.0001) %MON obc_W_uVel_min               =   0.0000000000000E+00
(PID.TID 0000.0001) %MON obc_W_uVel_mean              =   0.0000000000000E+00
(PID.TID 0000.0001) %MON obc_W_uVel_sd                =   0.0000000000000E+00
(PID.TID 0000.0001) %MON obc_W_uVel_Int               =   0.0000000000000E+00
(PID.TID 0000.0001) %MON obc_N_vVel_max               =   0.0000000000000E+00
(PID.TID 0000.0001) %MON obc_N_vVel_min               =   0.0000000000000E+00
(PID.TID 0000.0001) %MON obc_N_vVel_mean              =   0.0000000000000E+00
(PID.TID 0000.0001) %MON obc_N_vVel_sd                =   0.0000000000000E+00
(PID.TID 0000.0001) %MON obc_N_vVel_Int               =   0.0000000000000E+00
(PID.TID 0000.0001) // =======================================================
(PID.TID 0000.0001) // End OBCS MONITOR field statistics
(PID.TID 0000.0001) // =======================================================
(PID.TID 0000.0001) // =======================================================
(PID.TID 0000.0001) // Begin MONITOR SEAICE statistics
(PID.TID 0000.0001) // =======================================================
(PID.TID 0000.0001) %MON seaice_tsnumber              =                     3
(PID.TID 0000.0001) %MON seaice_time_sec              =   3.0000000000000E-01
(PID.TID 0000.0001) %MON seaice_uice_max              =   3.1907516629523E-06
(PID.TID 0000.0001) %MON seaice_uice_min              =  -3.1907475591857E-06
(PID.TID 0000.0001) %MON seaice_uice_mean             =   2.3493170065871E-12
(PID.TID 0000.0001) %MON seaice_uice_sd               =   1.5245445525284E-06
(PID.TID 0000.0001) %MON seaice_uice_del2             =   1.4916056210033E-08
(PID.TID 0000.0001) %MON seaice_vice_max              =   0.0000000000000E+00
(PID.TID 0000.0001) %MON seaice_vice_min              =  -1.4992503748125E-04
(PID.TID 0000.0001) %MON seaice_vice_mean             =  -1.0140511931697E-05
(PID.TID 0000.0001) %MON seaice_vice_sd               =   1.5552533943754E-05
(PID.TID 0000.0001) %MON seaice_vice_del2             =   2.2652106163504E-07
(PID.TID 0000.0001) %MON seaice_area_max              =   1.0000000000000E+00
(PID.TID 0000.0001) %MON seaice_area_min              =   0.0000000000000E+00
(PID.TID 0000.0001) %MON seaice_area_mean             =   8.4210526315789E-01
(PID.TID 0000.0001) %MON seaice_area_sd               =   3.6464227527766E-01
(PID.TID 0000.0001) %MON seaice_area_del2             =   5.3165923397485E-03
(PID.TID 0000.0001) %MON seaice_heff_max              =   1.0000001042229E+00
(PID.TID 0000.0001) %MON seaice_heff_min              =   0.0000000000000E+00
(PID.TID 0000.0001) %MON seaice_heff_mean             =   8.4210526408160E-01
(PID.TID 0000.0001) %MON seaice_heff_sd               =   3.6464227567763E-01
(PID.TID 0000.0001) %MON seaice_heff_del2             =   5.3165923455047E-03
(PID.TID 0000.0001) %MON seaice_hsnow_max             =   2.0000002084459E-01
(PID.TID 0000.0001) %MON seaice_hsnow_min             =   0.0000000000000E+00
(PID.TID 0000.0001) %MON seaice_hsnow_mean            =   1.6842105281632E-01
(PID.TID 0000.0001) %MON seaice_hsnow_sd              =   7.2928455135526E-02
(PID.TID 0000.0001) %MON seaice_hsnow_del2            =   1.0633184691009E-03
(PID.TID 0000.0001) // =======================================================
(PID.TID 0000.0001) // End MONITOR SEAICE statistics
(PID.TID 0000.0001) // =======================================================
 Computing Diagnostic #    216  SIsig11      Counter:       1   Parms: SM      M1      
 Computing Diagnostic #    217  SIsig22      Counter:       1   Parms: SM      M1      
 Computing Diagnostic #    155  SIuice       Counter:       1   Parms: UU      M1      
           Vector  Mate for  SIuice       Diagnostic #    156  SIvice   exists 
 Computing Diagnostic #    156  SIvice       Counter:       1   Parms: VV      M1      
           Vector  Mate for  SIvice       Diagnostic #    155  SIuice   exists 
 Computing Diagnostic #    146  SIarea       Counter:       1   Parms: SM      M1      
 Computing Diagnostic #    149  SIheff       Counter:       1   Parms: SM      M1      
 Computing Diagnostic #    219  SIeps11      Counter:       1   Parms: SM      M1      
 Computing Diagnostic #    220  SIeps22      Counter:       1   Parms: SM      M1      
 Computing Diagnostic #    218  SIsig12      Counter:       1   Parms: SM      M1      
 Computing Diagnostic #    221  SIeps12      Counter:       1   Parms: SM      M1      
 SEAICE_LSR: Residual Initial ipass,Uice,Vice=    1  5.28762289E+00  1.48194153E+00
 SEAICE_LSR (ipass=   1) iters,dU,Resid=   112  9.88105165E-12  9.38536852E-04
 SEAICE_LSR (ipass=   1) iters,dV,Resid=  1500  9.65567984E-11  1.74765816E-02
 SEAICE_LSR: Residual Initial ipass,Uice,Vice=    2  5.29376483E+00  1.47292803E+00
 SEAICE_LSR (ipass=   2) iters,dU,Resid=   112  9.23856094E-12  8.40442752E-04
 SEAICE_LSR (ipass=   2) iters,dV,Resid=  1500  9.17453504E-11  1.60980096E-02
 SEAICE_LSR: Residual Initial ipass,Uice,Vice=    3  5.29704481E+00  1.46738108E+00
 SEAICE_LSR (ipass=   3) iters,dU,Resid=   110  9.80838883E-12  8.58361854E-04
 SEAICE_LSR (ipass=   3) iters,dV,Resid=  1500  8.71123084E-11  1.48275577E-02
 SEAICE_LSR: Residual Initial ipass,Uice,Vice=    4  5.29889046E+00  1.46336731E+00
 SEAICE_LSR (ipass=   4) iters,dU,Resid=   110  9.19837431E-12  7.70060411E-04
 SEAICE_LSR (ipass=   4) iters,dV,Resid=  1500  8.26658605E-11  1.36591654E-02
 SEAICE_LSR: Residual Initial ipass,Uice,Vice=    5  5.29994347E+00  1.46037922E+00
 SEAICE_LSR (ipass=   5) iters,dU,Resid=   108  9.85120742E-12  7.92030117E-04
 SEAICE_LSR (ipass=   5) iters,dV,Resid=  1500  7.84087091E-11  1.25857115E-02
 SEAICE_LSR: Residual Initial ipass,Uice,Vice=    6  5.30054256E+00  1.45814850E+00
 SEAICE_LSR (ipass=   6) iters,dU,Resid=   108  9.27002386E-12  7.14254374E-04
 SEAICE_LSR (ipass=   6) iters,dV,Resid=  1500  7.43415399E-11  1.16001631E-02
 SEAICE_LSR: Residual Initial ipass,Uice,Vice=    7  5.30087706E+00  1.45652877E+00
 SEAICE_LSR (ipass=   7) iters,dU,Resid=   106  9.98876159E-12  7.41104409E-04
 SEAICE_LSR (ipass=   7) iters,dV,Resid=  1500  7.04618843E-11  1.06954837E-02
 SEAICE_LSR: Residual Initial ipass,Uice,Vice=    8  5.30105760E+00  1.45539931E+00
 SEAICE_LSR (ipass=   8) iters,dU,Resid=   106  9.43365236E-12  6.72447202E-04
 SEAICE_LSR (ipass=   8) iters,dV,Resid=  1500  6.67667084E-11  9.86518229E-03
 SEAICE_LSR: Residual Initial ipass,Uice,Vice=    9  5.30114941E+00  1.45469468E+00
 SEAICE_LSR (ipass=   9) iters,dU,Resid=   106  8.92089637E-12  6.11639920E-04
 SEAICE_LSR (ipass=   9) iters,dV,Resid=  1500  6.32510030E-11  9.10302461E-03
 SEAICE_LSR: Residual Initial ipass,Uice,Vice=   10  5.30119227E+00  1.45435454E+00
 SEAICE_LSR (ipass=  10) iters,dU,Resid=   104  9.70331319E-12  6.42848035E-04
 SEAICE_LSR (ipass=  10) iters,dV,Resid=  1500  5.99095648E-11  8.40332875E-03
(PID.TID 0000.0001) // =======================================================
(PID.TID 0000.0001) // Begin MONITOR dynamic field statistics
(PID.TID 0000.0001) // =======================================================
(PID.TID 0000.0001) %MON time_tsnumber                =                     4
(PID.TID 0000.0001) %MON time_secondsf                =   4.0000000000000E-01
(PID.TID 0000.0001) %MON dynstat_eta_max              =   0.0000000000000E+00
(PID.TID 0000.0001) %MON dynstat_eta_min              =   0.0000000000000E+00
(PID.TID 0000.0001) %MON dynstat_eta_mean             =   0.0000000000000E+00
(PID.TID 0000.0001) %MON dynstat_eta_sd               =   0.0000000000000E+00
(PID.TID 0000.0001) %MON dynstat_eta_del2             =   0.0000000000000E+00
(PID.TID 0000.0001) %MON dynstat_uvel_max             =   0.0000000000000E+00
(PID.TID 0000.0001) %MON dynstat_uvel_min             =   0.0000000000000E+00
(PID.TID 0000.0001) %MON dynstat_uvel_mean            =   0.0000000000000E+00
(PID.TID 0000.0001) %MON dynstat_uvel_sd              =   0.0000000000000E+00
(PID.TID 0000.0001) %MON dynstat_uvel_del2            =   0.0000000000000E+00
(PID.TID 0000.0001) %MON dynstat_vvel_max             =   0.0000000000000E+00
(PID.TID 0000.0001) %MON dynstat_vvel_min             =   0.0000000000000E+00
(PID.TID 0000.0001) %MON dynstat_vvel_mean            =   0.0000000000000E+00
(PID.TID 0000.0001) %MON dynstat_vvel_sd              =   0.0000000000000E+00
(PID.TID 0000.0001) %MON dynstat_vvel_del2            =   0.0000000000000E+00
(PID.TID 0000.0001) %MON dynstat_wvel_max             =  -0.0000000000000E+00
(PID.TID 0000.0001) %MON dynstat_wvel_min             =  -0.0000000000000E+00
(PID.TID 0000.0001) %MON dynstat_wvel_mean            =   0.0000000000000E+00
(PID.TID 0000.0001) %MON dynstat_wvel_sd              =   0.0000000000000E+00
(PID.TID 0000.0001) %MON dynstat_wvel_del2            =   0.0000000000000E+00
(PID.TID 0000.0001) %MON dynstat_theta_max            =   2.4000000000000E+01
(PID.TID 0000.0001) %MON dynstat_theta_min            =   2.4000000000000E+01
(PID.TID 0000.0001) %MON dynstat_theta_mean           =   2.4000000000000E+01
(PID.TID 0000.0001) %MON dynstat_theta_sd             =   0.0000000000000E+00
(PID.TID 0000.0001) %MON dynstat_theta_del2           =   0.0000000000000E+00
(PID.TID 0000.0001) %MON dynstat_salt_max             =   3.4650000000000E+01
(PID.TID 0000.0001) %MON dynstat_salt_min             =   3.4650000000000E+01
(PID.TID 0000.0001) %MON dynstat_salt_mean            =   3.4650000000000E+01
(PID.TID 0000.0001) %MON dynstat_salt_sd              =   0.0000000000000E+00
(PID.TID 0000.0001) %MON dynstat_salt_del2            =   0.0000000000000E+00
(PID.TID 0000.0001) %MON dynstat_sst_max              =   2.4000000000000E+01
(PID.TID 0000.0001) %MON dynstat_sst_min              =   2.4000000000000E+01
(PID.TID 0000.0001) %MON dynstat_sst_mean             =   2.4000000000000E+01
(PID.TID 0000.0001) %MON dynstat_sst_sd               =   0.0000000000000E+00
(PID.TID 0000.0001) %MON dynstat_sst_del2             =   0.0000000000000E+00
(PID.TID 0000.0001) %MON dynstat_sss_max              =   3.4650000000000E+01
(PID.TID 0000.0001) %MON dynstat_sss_min              =   3.4650000000000E+01
(PID.TID 0000.0001) %MON dynstat_sss_mean             =   3.4650000000000E+01
(PID.TID 0000.0001) %MON dynstat_sss_sd               =   0.0000000000000E+00
(PID.TID 0000.0001) %MON dynstat_sss_del2             =   0.0000000000000E+00
(PID.TID 0000.0001) %MON forcing_qnet_max             =   0.0000000000000E+00
(PID.TID 0000.0001) %MON forcing_qnet_min             =   0.0000000000000E+00
(PID.TID 0000.0001) %MON forcing_qnet_mean            =   0.0000000000000E+00
(PID.TID 0000.0001) %MON forcing_qnet_sd              =   0.0000000000000E+00
(PID.TID 0000.0001) %MON forcing_qnet_del2            =   0.0000000000000E+00
(PID.TID 0000.0001) %MON forcing_qsw_max              =   0.0000000000000E+00
(PID.TID 0000.0001) %MON forcing_qsw_min              =   0.0000000000000E+00
(PID.TID 0000.0001) %MON forcing_qsw_mean             =   0.0000000000000E+00
(PID.TID 0000.0001) %MON forcing_qsw_sd               =   0.0000000000000E+00
(PID.TID 0000.0001) %MON forcing_qsw_del2             =   0.0000000000000E+00
(PID.TID 0000.0001) %MON forcing_empmr_max            =   0.0000000000000E+00
(PID.TID 0000.0001) %MON forcing_empmr_min            =   0.0000000000000E+00
(PID.TID 0000.0001) %MON forcing_empmr_mean           =   0.0000000000000E+00
(PID.TID 0000.0001) %MON forcing_empmr_sd             =   0.0000000000000E+00
(PID.TID 0000.0001) %MON forcing_empmr_del2           =   0.0000000000000E+00
(PID.TID 0000.0001) %MON forcing_fu_max               =   1.0617371254142E-06
(PID.TID 0000.0001) %MON forcing_fu_min               =  -1.0617357325958E-06
(PID.TID 0000.0001) %MON forcing_fu_mean              =   6.5474798575048E-13
(PID.TID 0000.0001) %MON forcing_fu_sd                =   5.0701762702527E-07
(PID.TID 0000.0001) %MON forcing_fu_del2              =   2.5810283503385E-09
(PID.TID 0000.0001) %MON forcing_fv_max               =   0.0000000000000E+00
(PID.TID 0000.0001) %MON forcing_fv_min               =  -4.9975012493753E-05
(PID.TID 0000.0001) %MON forcing_fv_mean              =  -3.2076328613991E-06
(PID.TID 0000.0001) %MON forcing_fv_sd                =   4.8923685137589E-06
(PID.TID 0000.0001) %MON forcing_fv_del2              =   7.3643658395141E-08
(PID.TID 0000.0001) %MON trAdv_CFL_u_max              =   0.0000000000000E+00
(PID.TID 0000.0001) %MON trAdv_CFL_v_max              =   0.0000000000000E+00
(PID.TID 0000.0001) %MON trAdv_CFL_w_max              =   0.0000000000000E+00
(PID.TID 0000.0001) %MON advcfl_uvel_max              =   0.0000000000000E+00
(PID.TID 0000.0001) %MON advcfl_vvel_max              =   0.0000000000000E+00
(PID.TID 0000.0001) %MON advcfl_wvel_max              =   0.0000000000000E+00
(PID.TID 0000.0001) %MON advcfl_W_hf_max              =   0.0000000000000E+00
(PID.TID 0000.0001) %MON pe_b_mean                    =   0.0000000000000E+00
(PID.TID 0000.0001) %MON ke_max                       =   0.0000000000000E+00
(PID.TID 0000.0001) %MON ke_mean                      =   0.0000000000000E+00
(PID.TID 0000.0001) %MON ke_vol                       =   4.6550000000000E+10
(PID.TID 0000.0001) %MON vort_r_min                   =   0.0000000000000E+00
(PID.TID 0000.0001) %MON vort_r_max                   =   0.0000000000000E+00
(PID.TID 0000.0001) %MON vort_a_mean                  =   0.0000000000000E+00
(PID.TID 0000.0001) %MON vort_a_sd                    =   0.0000000000000E+00
(PID.TID 0000.0001) %MON vort_p_mean                  =   0.0000000000000E+00
(PID.TID 0000.0001) %MON vort_p_sd                    =   0.0000000000000E+00
(PID.TID 0000.0001) %MON surfExpan_theta_mean         =   0.0000000000000E+00
(PID.TID 0000.0001) %MON surfExpan_salt_mean          =   0.0000000000000E+00
(PID.TID 0000.0001) // =======================================================
(PID.TID 0000.0001) // End MONITOR dynamic field statistics
(PID.TID 0000.0001) // =======================================================
(PID.TID 0000.0001) // =======================================================
(PID.TID 0000.0001) // Begin OBCS MONITOR field statistics
(PID.TID 0000.0001) // =======================================================
(PID.TID 0000.0001) %MON obc_E_uVel_max               =   0.0000000000000E+00
(PID.TID 0000.0001) %MON obc_E_uVel_min               =   0.0000000000000E+00
(PID.TID 0000.0001) %MON obc_E_uVel_mean              =   0.0000000000000E+00
(PID.TID 0000.0001) %MON obc_E_uVel_sd                =   0.0000000000000E+00
(PID.TID 0000.0001) %MON obc_E_uVel_Int               =   0.0000000000000E+00
(PID.TID 0000.0001) %MON obc_W_uVel_max               =   0.0000000000000E+00
(PID.TID 0000.0001) %MON obc_W_uVel_min               =   0.0000000000000E+00
(PID.TID 0000.0001) %MON obc_W_uVel_mean              =   0.0000000000000E+00
(PID.TID 0000.0001) %MON obc_W_uVel_sd                =   0.0000000000000E+00
(PID.TID 0000.0001) %MON obc_W_uVel_Int               =   0.0000000000000E+00
(PID.TID 0000.0001) %MON obc_N_vVel_max               =   0.0000000000000E+00
(PID.TID 0000.0001) %MON obc_N_vVel_min               =   0.0000000000000E+00
(PID.TID 0000.0001) %MON obc_N_vVel_mean              =   0.0000000000000E+00
(PID.TID 0000.0001) %MON obc_N_vVel_sd                =   0.0000000000000E+00
(PID.TID 0000.0001) %MON obc_N_vVel_Int               =   0.0000000000000E+00
(PID.TID 0000.0001) // =======================================================
(PID.TID 0000.0001) // End OBCS MONITOR field statistics
(PID.TID 0000.0001) // =======================================================
(PID.TID 0000.0001) // =======================================================
(PID.TID 0000.0001) // Begin MONITOR SEAICE statistics
(PID.TID 0000.0001) // =======================================================
(PID.TID 0000.0001) %MON seaice_tsnumber              =                     4
(PID.TID 0000.0001) %MON seaice_time_sec              =   4.0000000000000E-01
(PID.TID 0000.0001) %MON seaice_uice_max              =   4.5007938291060E-06
(PID.TID 0000.0001) %MON seaice_uice_min              =  -4.5007885481312E-06
(PID.TID 0000.0001) %MON seaice_uice_mean             =   3.0158467552478E-12
(PID.TID 0000.0001) %MON seaice_uice_sd               =   2.1710082485142E-06
(PID.TID 0000.0001) %MON seaice_uice_del2             =   2.1206413809593E-08
(PID.TID 0000.0001) %MON seaice_vice_max              =   0.0000000000000E+00
(PID.TID 0000.0001) %MON seaice_vice_min              =  -1.9990004997501E-04
(PID.TID 0000.0001) %MON seaice_vice_mean             =  -1.3849640531657E-05
(PID.TID 0000.0001) %MON seaice_vice_sd               =   2.0796413215416E-05
(PID.TID 0000.0001) %MON seaice_vice_del2             =   3.0160410424119E-07
(PID.TID 0000.0001) %MON seaice_area_max              =   1.0000000000000E+00
(PID.TID 0000.0001) %MON seaice_area_min              =   0.0000000000000E+00
(PID.TID 0000.0001) %MON seaice_area_mean             =   8.4210526315789E-01
(PID.TID 0000.0001) %MON seaice_area_sd               =   3.6464227527766E-01
(PID.TID 0000.0001) %MON seaice_area_del2             =   5.3165923397485E-03
(PID.TID 0000.0001) %MON seaice_heff_max              =   1.0000001735186E+00
(PID.TID 0000.0001) %MON seaice_heff_min              =   0.0000000000000E+00
(PID.TID 0000.0001) %MON seaice_heff_mean             =   8.4210526468789E-01
(PID.TID 0000.0001) %MON seaice_heff_sd               =   3.6464227594017E-01
(PID.TID 0000.0001) %MON seaice_heff_del2             =   5.3165923492945E-03
(PID.TID 0000.0001) %MON seaice_hsnow_max             =   2.0000003470372E-01
(PID.TID 0000.0001) %MON seaice_hsnow_min             =   0.0000000000000E+00
(PID.TID 0000.0001) %MON seaice_hsnow_mean            =   1.6842105293758E-01
(PID.TID 0000.0001) %MON seaice_hsnow_sd              =   7.2928455188033E-02
(PID.TID 0000.0001) %MON seaice_hsnow_del2            =   1.0633184698589E-03
(PID.TID 0000.0001) // =======================================================
(PID.TID 0000.0001) // End MONITOR SEAICE statistics
(PID.TID 0000.0001) // =======================================================
 Computing Diagnostic #    216  SIsig11      Counter:       1   Parms: SM      M1      
 Computing Diagnostic #    217  SIsig22      Counter:       1   Parms: SM      M1      
 Computing Diagnostic #    155  SIuice       Counter:       1   Parms: UU      M1      
           Vector  Mate for  SIuice       Diagnostic #    156  SIvice   exists 
 Computing Diagnostic #    156  SIvice       Counter:       1   Parms: VV      M1      
           Vector  Mate for  SIvice       Diagnostic #    155  SIuice   exists 
 Computing Diagnostic #    146  SIarea       Counter:       1   Parms: SM      M1      
 Computing Diagnostic #    149  SIheff       Counter:       1   Parms: SM      M1      
 Computing Diagnostic #    219  SIeps11      Counter:       1   Parms: SM      M1      
 Computing Diagnostic #    220  SIeps22      Counter:       1   Parms: SM      M1      
 Computing Diagnostic #    218  SIsig12      Counter:       1   Parms: SM      M1      
 Computing Diagnostic #    221  SIeps12      Counter:       1   Parms: SM      M1      
 SEAICE_LSR: Residual Initial ipass,Uice,Vice=    1  5.30125349E+00  1.45495507E+00
 SEAICE_LSR (ipass=   1) iters,dU,Resid=   104  8.77287825E-12  5.40507965E-04
 SEAICE_LSR (ipass=   1) iters,dV,Resid=  1500  5.59750741E-11  7.45481808E-03
 SEAICE_LSR: Residual Initial ipass,Uice,Vice=    2  5.30573202E+00  1.45159913E+00
 SEAICE_LSR (ipass=   2) iters,dU,Resid=   102  9.71873475E-12  5.80509543E-04
 SEAICE_LSR (ipass=   2) iters,dV,Resid=  1500  5.31598622E-11  6.91254279E-03
 SEAICE_LSR: Residual Initial ipass,Uice,Vice=    3  5.30814345E+00  1.45056283E+00
 SEAICE_LSR (ipass=   3) iters,dU,Resid=   102  9.34169315E-12  5.39327411E-04
 SEAICE_LSR (ipass=   3) iters,dV,Resid=  1500  5.04550516E-11  6.40820425E-03
 SEAICE_LSR: Residual Initial ipass,Uice,Vice=    4  5.30956690E+00  1.45047518E+00
 SEAICE_LSR (ipass=   4) iters,dU,Resid=   102  8.97831023E-12  5.01346481E-04
 SEAICE_LSR (ipass=   4) iters,dV,Resid=  1500  4.78706914E-11  5.94104233E-03
 SEAICE_LSR: Residual Initial ipass,Uice,Vice=    5  5.31046379E+00  1.45097890E+00
 SEAICE_LSR (ipass=   5) iters,dU,Resid=   100  9.98008225E-12  5.41407235E-04
 SEAICE_LSR (ipass=   5) iters,dV,Resid=  1500  4.54101079E-11  5.50929805E-03
 SEAICE_LSR: Residual Initial ipass,Uice,Vice=    6  5.31107000E+00  1.45189821E+00
 SEAICE_LSR (ipass=   6) iters,dU,Resid=   100  9.61255856E-12  5.05088041E-04
 SEAICE_LSR (ipass=   6) iters,dV,Resid=  1500  4.30730140E-11  5.11081169E-03
 SEAICE_LSR: Residual Initial ipass,Uice,Vice=    7  5.31151532E+00  1.45314422E+00
 SEAICE_LSR (ipass=   7) iters,dU,Resid=   100  9.26679698E-12  4.71955838E-04
 SEAICE_LSR (ipass=   7) iters,dV,Resid=  1500  4.08564128E-11  4.74321225E-03
 SEAICE_LSR: Residual Initial ipass,Uice,Vice=    8  5.31187408E+00  1.45465372E+00
 SEAICE_LSR (ipass=   8) iters,dU,Resid=   100  8.94254360E-12  4.41749318E-04
 SEAICE_LSR (ipass=   8) iters,dV,Resid=  1500  3.87564687E-11  4.40419850E-03
 SEAICE_LSR: Residual Initial ipass,Uice,Vice=    9  5.31219023E+00  1.45638551E+00
 SEAICE_LSR (ipass=   9) iters,dU,Resid=   100  8.63907534E-12  4.14206933E-04
 SEAICE_LSR (ipass=   9) iters,dV,Resid=  1500  3.67687013E-11  4.09156190E-03
 SEAICE_LSR: Residual Initial ipass,Uice,Vice=   10  5.31249018E+00  1.45831173E+00
 SEAICE_LSR (ipass=  10) iters,dU,Resid=    98  9.70279261E-12  4.53592313E-04
 SEAICE_LSR (ipass=  10) iters,dV,Resid=  1500  3.48883122E-11  3.80322130E-03
(PID.TID 0000.0001) // =======================================================
(PID.TID 0000.0001) // Begin MONITOR dynamic field statistics
(PID.TID 0000.0001) // =======================================================
(PID.TID 0000.0001) %MON time_tsnumber                =                     5
(PID.TID 0000.0001) %MON time_secondsf                =   5.0000000000000E-01
(PID.TID 0000.0001) %MON dynstat_eta_max              =   0.0000000000000E+00
(PID.TID 0000.0001) %MON dynstat_eta_min              =   0.0000000000000E+00
(PID.TID 0000.0001) %MON dynstat_eta_mean             =   0.0000000000000E+00
(PID.TID 0000.0001) %MON dynstat_eta_sd               =   0.0000000000000E+00
(PID.TID 0000.0001) %MON dynstat_eta_del2             =   0.0000000000000E+00
(PID.TID 0000.0001) %MON dynstat_uvel_max             =   0.0000000000000E+00
(PID.TID 0000.0001) %MON dynstat_uvel_min             =   0.0000000000000E+00
(PID.TID 0000.0001) %MON dynstat_uvel_mean            =   0.0000000000000E+00
(PID.TID 0000.0001) %MON dynstat_uvel_sd              =   0.0000000000000E+00
(PID.TID 0000.0001) %MON dynstat_uvel_del2            =   0.0000000000000E+00
(PID.TID 0000.0001) %MON dynstat_vvel_max             =   0.0000000000000E+00
(PID.TID 0000.0001) %MON dynstat_vvel_min             =   0.0000000000000E+00
(PID.TID 0000.0001) %MON dynstat_vvel_mean            =   0.0000000000000E+00
(PID.TID 0000.0001) %MON dynstat_vvel_sd              =   0.0000000000000E+00
(PID.TID 0000.0001) %MON dynstat_vvel_del2            =   0.0000000000000E+00
(PID.TID 0000.0001) %MON dynstat_wvel_max             =  -0.0000000000000E+00
(PID.TID 0000.0001) %MON dynstat_wvel_min             =  -0.0000000000000E+00
(PID.TID 0000.0001) %MON dynstat_wvel_mean            =   0.0000000000000E+00
(PID.TID 0000.0001) %MON dynstat_wvel_sd              =   0.0000000000000E+00
(PID.TID 0000.0001) %MON dynstat_wvel_del2            =   0.0000000000000E+00
(PID.TID 0000.0001) %MON dynstat_theta_max            =   2.4000000000000E+01
(PID.TID 0000.0001) %MON dynstat_theta_min            =   2.4000000000000E+01
(PID.TID 0000.0001) %MON dynstat_theta_mean           =   2.4000000000000E+01
(PID.TID 0000.0001) %MON dynstat_theta_sd             =   0.0000000000000E+00
(PID.TID 0000.0001) %MON dynstat_theta_del2           =   0.0000000000000E+00
(PID.TID 0000.0001) %MON dynstat_salt_max             =   3.4650000000000E+01
(PID.TID 0000.0001) %MON dynstat_salt_min             =   3.4650000000000E+01
(PID.TID 0000.0001) %MON dynstat_salt_mean            =   3.4650000000000E+01
(PID.TID 0000.0001) %MON dynstat_salt_sd              =   0.0000000000000E+00
(PID.TID 0000.0001) %MON dynstat_salt_del2            =   0.0000000000000E+00
(PID.TID 0000.0001) %MON dynstat_sst_max              =   2.4000000000000E+01
(PID.TID 0000.0001) %MON dynstat_sst_min              =   2.4000000000000E+01
(PID.TID 0000.0001) %MON dynstat_sst_mean             =   2.4000000000000E+01
(PID.TID 0000.0001) %MON dynstat_sst_sd               =   0.0000000000000E+00
(PID.TID 0000.0001) %MON dynstat_sst_del2             =   0.0000000000000E+00
(PID.TID 0000.0001) %MON dynstat_sss_max              =   3.4650000000000E+01
(PID.TID 0000.0001) %MON dynstat_sss_min              =   3.4650000000000E+01
(PID.TID 0000.0001) %MON dynstat_sss_mean             =   3.4650000000000E+01
(PID.TID 0000.0001) %MON dynstat_sss_sd               =   0.0000000000000E+00
(PID.TID 0000.0001) %MON dynstat_sss_del2             =   0.0000000000000E+00
(PID.TID 0000.0001) %MON forcing_qnet_max             =   0.0000000000000E+00
(PID.TID 0000.0001) %MON forcing_qnet_min             =   0.0000000000000E+00
(PID.TID 0000.0001) %MON forcing_qnet_mean            =   0.0000000000000E+00
(PID.TID 0000.0001) %MON forcing_qnet_sd              =   0.0000000000000E+00
(PID.TID 0000.0001) %MON forcing_qnet_del2            =   0.0000000000000E+00
(PID.TID 0000.0001) %MON forcing_qsw_max              =   0.0000000000000E+00
(PID.TID 0000.0001) %MON forcing_qsw_min              =   0.0000000000000E+00
(PID.TID 0000.0001) %MON forcing_qsw_mean             =   0.0000000000000E+00
(PID.TID 0000.0001) %MON forcing_qsw_sd               =   0.0000000000000E+00
(PID.TID 0000.0001) %MON forcing_qsw_del2             =   0.0000000000000E+00
(PID.TID 0000.0001) %MON forcing_empmr_max            =   0.0000000000000E+00
(PID.TID 0000.0001) %MON forcing_empmr_min            =   0.0000000000000E+00
(PID.TID 0000.0001) %MON forcing_empmr_mean           =   0.0000000000000E+00
(PID.TID 0000.0001) %MON forcing_empmr_sd             =   0.0000000000000E+00
(PID.TID 0000.0001) %MON forcing_empmr_del2           =   0.0000000000000E+00
(PID.TID 0000.0001) %MON forcing_fu_max               =   1.3820198251531E-06
(PID.TID 0000.0001) %MON forcing_fu_min               =  -1.3820181998504E-06
(PID.TID 0000.0001) %MON forcing_fu_mean              =   7.7367698875479E-13
(PID.TID 0000.0001) %MON forcing_fu_sd                =   6.6496511972734E-07
(PID.TID 0000.0001) %MON forcing_fu_del2              =   3.3850988341679E-09
(PID.TID 0000.0001) %MON forcing_fv_max               =   0.0000000000000E+00
(PID.TID 0000.0001) %MON forcing_fv_min               =  -6.2468765617191E-05
(PID.TID 0000.0001) %MON forcing_fv_mean              =  -4.1058957182149E-06
(PID.TID 0000.0001) %MON forcing_fv_sd                =   6.1381504664765E-06
(PID.TID 0000.0001) %MON forcing_fv_del2              =   9.1949915844628E-08
(PID.TID 0000.0001) %MON trAdv_CFL_u_max              =   0.0000000000000E+00
(PID.TID 0000.0001) %MON trAdv_CFL_v_max              =   0.0000000000000E+00
(PID.TID 0000.0001) %MON trAdv_CFL_w_max              =   0.0000000000000E+00
(PID.TID 0000.0001) %MON advcfl_uvel_max              =   0.0000000000000E+00
(PID.TID 0000.0001) %MON advcfl_vvel_max              =   0.0000000000000E+00
(PID.TID 0000.0001) %MON advcfl_wvel_max              =   0.0000000000000E+00
(PID.TID 0000.0001) %MON advcfl_W_hf_max              =   0.0000000000000E+00
(PID.TID 0000.0001) %MON pe_b_mean                    =   0.0000000000000E+00
(PID.TID 0000.0001) %MON ke_max                       =   0.0000000000000E+00
(PID.TID 0000.0001) %MON ke_mean                      =   0.0000000000000E+00
(PID.TID 0000.0001) %MON ke_vol                       =   4.6550000000000E+10
(PID.TID 0000.0001) %MON vort_r_min                   =   0.0000000000000E+00
(PID.TID 0000.0001) %MON vort_r_max                   =   0.0000000000000E+00
(PID.TID 0000.0001) %MON vort_a_mean                  =   0.0000000000000E+00
(PID.TID 0000.0001) %MON vort_a_sd                    =   0.0000000000000E+00
(PID.TID 0000.0001) %MON vort_p_mean                  =   0.0000000000000E+00
(PID.TID 0000.0001) %MON vort_p_sd                    =   0.0000000000000E+00
(PID.TID 0000.0001) %MON surfExpan_theta_mean         =   0.0000000000000E+00
(PID.TID 0000.0001) %MON surfExpan_salt_mean          =   0.0000000000000E+00
(PID.TID 0000.0001) // =======================================================
(PID.TID 0000.0001) // End MONITOR dynamic field statistics
(PID.TID 0000.0001) // =======================================================
(PID.TID 0000.0001) // =======================================================
(PID.TID 0000.0001) // Begin OBCS MONITOR field statistics
(PID.TID 0000.0001) // =======================================================
(PID.TID 0000.0001) %MON obc_E_uVel_max               =   0.0000000000000E+00
(PID.TID 0000.0001) %MON obc_E_uVel_min               =   0.0000000000000E+00
(PID.TID 0000.0001) %MON obc_E_uVel_mean              =   0.0000000000000E+00
(PID.TID 0000.0001) %MON obc_E_uVel_sd                =   0.0000000000000E+00
(PID.TID 0000.0001) %MON obc_E_uVel_Int               =   0.0000000000000E+00
(PID.TID 0000.0001) %MON obc_W_uVel_max               =   0.0000000000000E+00
(PID.TID 0000.0001) %MON obc_W_uVel_min               =   0.0000000000000E+00
(PID.TID 0000.0001) %MON obc_W_uVel_mean              =   0.0000000000000E+00
(PID.TID 0000.0001) %MON obc_W_uVel_sd                =   0.0000000000000E+00
(PID.TID 0000.0001) %MON obc_W_uVel_Int               =   0.0000000000000E+00
(PID.TID 0000.0001) %MON obc_N_vVel_max               =   0.0000000000000E+00
(PID.TID 0000.0001) %MON obc_N_vVel_min               =   0.0000000000000E+00
(PID.TID 0000.0001) %MON obc_N_vVel_mean              =   0.0000000000000E+00
(PID.TID 0000.0001) %MON obc_N_vVel_sd                =   0.0000000000000E+00
(PID.TID 0000.0001) %MON obc_N_vVel_Int               =   0.0000000000000E+00
(PID.TID 0000.0001) // =======================================================
(PID.TID 0000.0001) // End OBCS MONITOR field statistics
(PID.TID 0000.0001) // =======================================================
(PID.TID 0000.0001) // =======================================================
(PID.TID 0000.0001) // Begin MONITOR SEAICE statistics
(PID.TID 0000.0001) // =======================================================
(PID.TID 0000.0001) %MON seaice_tsnumber              =                     5
(PID.TID 0000.0001) %MON seaice_time_sec              =   5.0000000000000E-01
(PID.TID 0000.0001) %MON seaice_uice_max              =   5.8536855415842E-06
(PID.TID 0000.0001) %MON seaice_uice_min              =  -5.8536791885584E-06
(PID.TID 0000.0001) %MON seaice_uice_mean             =   3.5465552018641E-12
(PID.TID 0000.0001) %MON seaice_uice_sd               =   2.8467899237931E-06
(PID.TID 0000.0001) %MON seaice_uice_del2             =   2.7811012529766E-08
(PID.TID 0000.0001) %MON seaice_vice_max              =   0.0000000000000E+00
(PID.TID 0000.0001) %MON seaice_vice_min              =  -2.4987506246876E-04
(PID.TID 0000.0001) %MON seaice_vice_mean             =  -1.7722022583957E-05
(PID.TID 0000.0001) %MON seaice_vice_sd               =   2.6065035012448E-05
(PID.TID 0000.0001) %MON seaice_vice_del2             =   3.7646324654303E-07
(PID.TID 0000.0001) %MON seaice_area_max              =   1.0000000000000E+00
(PID.TID 0000.0001) %MON seaice_area_min              =   0.0000000000000E+00
(PID.TID 0000.0001) %MON seaice_area_mean             =   8.4210526315789E-01
(PID.TID 0000.0001) %MON seaice_area_sd               =   3.6464227527766E-01
(PID.TID 0000.0001) %MON seaice_area_del2             =   5.3165923397485E-03
(PID.TID 0000.0001) %MON seaice_heff_max              =   1.0000002598439E+00
(PID.TID 0000.0001) %MON seaice_heff_min              =   0.0000000000000E+00
(PID.TID 0000.0001) %MON seaice_heff_mean             =   8.4210526544080E-01
(PID.TID 0000.0001) %MON seaice_heff_sd               =   3.6464227626618E-01
(PID.TID 0000.0001) %MON seaice_heff_del2             =   5.3165923539954E-03
(PID.TID 0000.0001) %MON seaice_hsnow_max             =   2.0000005196879E-01
(PID.TID 0000.0001) %MON seaice_hsnow_min             =   0.0000000000000E+00
(PID.TID 0000.0001) %MON seaice_hsnow_mean            =   1.6842105308816E-01
(PID.TID 0000.0001) %MON seaice_hsnow_sd              =   7.2928455253236E-02
(PID.TID 0000.0001) %MON seaice_hsnow_del2            =   1.0633184707991E-03
(PID.TID 0000.0001) // =======================================================
(PID.TID 0000.0001) // End MONITOR SEAICE statistics
(PID.TID 0000.0001) // =======================================================
 Computing Diagnostic #    216  SIsig11      Counter:       1   Parms: SM      M1      
 Computing Diagnostic #    217  SIsig22      Counter:       1   Parms: SM      M1      
 Computing Diagnostic #    155  SIuice       Counter:       1   Parms: UU      M1      
           Vector  Mate for  SIuice       Diagnostic #    156  SIvice   exists 
 Computing Diagnostic #    156  SIvice       Counter:       1   Parms: VV      M1      
           Vector  Mate for  SIvice       Diagnostic #    155  SIuice   exists 
 Computing Diagnostic #    146  SIarea       Counter:       1   Parms: SM      M1      
 Computing Diagnostic #    149  SIheff       Counter:       1   Parms: SM      M1      
 Computing Diagnostic #    219  SIeps11      Counter:       1   Parms: SM      M1      
 Computing Diagnostic #    220  SIeps22      Counter:       1   Parms: SM      M1      
 Computing Diagnostic #    218  SIsig12      Counter:       1   Parms: SM      M1      
 Computing Diagnostic #    221  SIeps12      Counter:       1   Parms: SM      M1      
 SEAICE_LSR: Residual Initial ipass,Uice,Vice=    1  5.31307861E+00  1.46301787E+00
 SEAICE_LSR (ipass=   1) iters,dU,Resid=    98  9.13090516E-12  4.03379411E-04
 SEAICE_LSR (ipass=   1) iters,dV,Resid=  1500  3.25303625E-11  3.40126278E-03
 SEAICE_LSR: Residual Initial ipass,Uice,Vice=    2  5.31666427E+00  1.46263026E+00
 SEAICE_LSR (ipass=   2) iters,dU,Resid=    98  8.92749842E-12  3.83889437E-04
 SEAICE_LSR (ipass=   2) iters,dV,Resid=  1500  3.09770683E-11  3.17672575E-03
 SEAICE_LSR: Residual Initial ipass,Uice,Vice=    3  5.31871129E+00  1.46396836E+00
 SEAICE_LSR (ipass=   3) iters,dU,Resid=    98  8.72292216E-12  3.65244093E-04
 SEAICE_LSR (ipass=   3) iters,dV,Resid=  1500  2.94849917E-11  2.96644404E-03
 SEAICE_LSR: Residual Initial ipass,Uice,Vice=    4  5.32005995E+00  1.46599093E+00
 SEAICE_LSR (ipass=   4) iters,dU,Resid=    96  9.93134644E-12  4.06750439E-04
 SEAICE_LSR (ipass=   4) iters,dV,Resid=  1500  2.80613742E-11  2.77053190E-03
 SEAICE_LSR: Residual Initial ipass,Uice,Vice=    5  5.32105013E+00  1.46843212E+00
 SEAICE_LSR (ipass=   5) iters,dU,Resid=    96  9.71336702E-12  3.87741318E-04
 SEAICE_LSR (ipass=   5) iters,dV,Resid=  1500  2.67084741E-11  2.58852348E-03
 SEAICE_LSR: Residual Initial ipass,Uice,Vice=    6  5.32185045E+00  1.47118019E+00
 SEAICE_LSR (ipass=   6) iters,dU,Resid=    96  9.50515168E-12  3.69996409E-04
 SEAICE_LSR (ipass=   6) iters,dV,Resid=  1500  2.54255947E-11  2.41965735E-03
 SEAICE_LSR: Residual Initial ipass,Uice,Vice=    7  5.32255173E+00  1.47416875E+00
 SEAICE_LSR (ipass=   7) iters,dU,Resid=    96  9.30741491E-12  3.53466216E-04
 SEAICE_LSR (ipass=   7) iters,dV,Resid=  1500  2.42108729E-11  2.26309648E-03
 SEAICE_LSR: Residual Initial ipass,Uice,Vice=    8  5.32320542E+00  1.47735965E+00
 SEAICE_LSR (ipass=   8) iters,dU,Resid=    96  9.12035098E-12  3.38082666E-04
 SEAICE_LSR (ipass=   8) iters,dV,Resid=  1500  2.30617436E-11  2.11798488E-03
 SEAICE_LSR: Residual Initial ipass,Uice,Vice=    9  5.32384153E+00  1.48073061E+00
 SEAICE_LSR (ipass=   9) iters,dU,Resid=    96  8.94384717E-12  3.23770230E-04
 SEAICE_LSR (ipass=   9) iters,dV,Resid=  1500  2.19753073E-11  1.98348743E-03
 SEAICE_LSR: Residual Initial ipass,Uice,Vice=   10  5.32447782E+00  1.48426869E+00
 SEAICE_LSR (ipass=  10) iters,dU,Resid=    96  8.77760758E-12  3.10451900E-04
 SEAICE_LSR (ipass=  10) iters,dV,Resid=  1500  2.09485353E-11  1.85880915E-03
(PID.TID 0000.0001) // =======================================================
(PID.TID 0000.0001) // Begin MONITOR dynamic field statistics
(PID.TID 0000.0001) // =======================================================
(PID.TID 0000.0001) %MON time_tsnumber                =                     6
(PID.TID 0000.0001) %MON time_secondsf                =   6.0000000000000E-01
(PID.TID 0000.0001) %MON dynstat_eta_max              =   0.0000000000000E+00
(PID.TID 0000.0001) %MON dynstat_eta_min              =   0.0000000000000E+00
(PID.TID 0000.0001) %MON dynstat_eta_mean             =   0.0000000000000E+00
(PID.TID 0000.0001) %MON dynstat_eta_sd               =   0.0000000000000E+00
(PID.TID 0000.0001) %MON dynstat_eta_del2             =   0.0000000000000E+00
(PID.TID 0000.0001) %MON dynstat_uvel_max             =   0.0000000000000E+00
(PID.TID 0000.0001) %MON dynstat_uvel_min             =   0.0000000000000E+00
(PID.TID 0000.0001) %MON dynstat_uvel_mean            =   0.0000000000000E+00
(PID.TID 0000.0001) %MON dynstat_uvel_sd              =   0.0000000000000E+00
(PID.TID 0000.0001) %MON dynstat_uvel_del2            =   0.0000000000000E+00
(PID.TID 0000.0001) %MON dynstat_vvel_max             =   0.0000000000000E+00
(PID.TID 0000.0001) %MON dynstat_vvel_min             =   0.0000000000000E+00
(PID.TID 0000.0001) %MON dynstat_vvel_mean            =   0.0000000000000E+00
(PID.TID 0000.0001) %MON dynstat_vvel_sd              =   0.0000000000000E+00
(PID.TID 0000.0001) %MON dynstat_vvel_del2            =   0.0000000000000E+00
(PID.TID 0000.0001) %MON dynstat_wvel_max             =  -0.0000000000000E+00
(PID.TID 0000.0001) %MON dynstat_wvel_min             =  -0.0000000000000E+00
(PID.TID 0000.0001) %MON dynstat_wvel_mean            =   0.0000000000000E+00
(PID.TID 0000.0001) %MON dynstat_wvel_sd              =   0.0000000000000E+00
(PID.TID 0000.0001) %MON dynstat_wvel_del2            =   0.0000000000000E+00
(PID.TID 0000.0001) %MON dynstat_theta_max            =   2.4000000000000E+01
(PID.TID 0000.0001) %MON dynstat_theta_min            =   2.4000000000000E+01
(PID.TID 0000.0001) %MON dynstat_theta_mean           =   2.4000000000000E+01
(PID.TID 0000.0001) %MON dynstat_theta_sd             =   0.0000000000000E+00
(PID.TID 0000.0001) %MON dynstat_theta_del2           =   0.0000000000000E+00
(PID.TID 0000.0001) %MON dynstat_salt_max             =   3.4650000000000E+01
(PID.TID 0000.0001) %MON dynstat_salt_min             =   3.4650000000000E+01
(PID.TID 0000.0001) %MON dynstat_salt_mean            =   3.4650000000000E+01
(PID.TID 0000.0001) %MON dynstat_salt_sd              =   0.0000000000000E+00
(PID.TID 0000.0001) %MON dynstat_salt_del2            =   0.0000000000000E+00
(PID.TID 0000.0001) %MON dynstat_sst_max              =   2.4000000000000E+01
(PID.TID 0000.0001) %MON dynstat_sst_min              =   2.4000000000000E+01
(PID.TID 0000.0001) %MON dynstat_sst_mean             =   2.4000000000000E+01
(PID.TID 0000.0001) %MON dynstat_sst_sd               =   0.0000000000000E+00
(PID.TID 0000.0001) %MON dynstat_sst_del2             =   0.0000000000000E+00
(PID.TID 0000.0001) %MON dynstat_sss_max              =   3.4650000000000E+01
(PID.TID 0000.0001) %MON dynstat_sss_min              =   3.4650000000000E+01
(PID.TID 0000.0001) %MON dynstat_sss_mean             =   3.4650000000000E+01
(PID.TID 0000.0001) %MON dynstat_sss_sd               =   0.0000000000000E+00
(PID.TID 0000.0001) %MON dynstat_sss_del2             =   0.0000000000000E+00
(PID.TID 0000.0001) %MON forcing_qnet_max             =   0.0000000000000E+00
(PID.TID 0000.0001) %MON forcing_qnet_min             =   0.0000000000000E+00
(PID.TID 0000.0001) %MON forcing_qnet_mean            =   0.0000000000000E+00
(PID.TID 0000.0001) %MON forcing_qnet_sd              =   0.0000000000000E+00
(PID.TID 0000.0001) %MON forcing_qnet_del2            =   0.0000000000000E+00
(PID.TID 0000.0001) %MON forcing_qsw_max              =   0.0000000000000E+00
(PID.TID 0000.0001) %MON forcing_qsw_min              =   0.0000000000000E+00
(PID.TID 0000.0001) %MON forcing_qsw_mean             =   0.0000000000000E+00
(PID.TID 0000.0001) %MON forcing_qsw_sd               =   0.0000000000000E+00
(PID.TID 0000.0001) %MON forcing_qsw_del2             =   0.0000000000000E+00
(PID.TID 0000.0001) %MON forcing_empmr_max            =   0.0000000000000E+00
(PID.TID 0000.0001) %MON forcing_empmr_min            =   0.0000000000000E+00
(PID.TID 0000.0001) %MON forcing_empmr_mean           =   0.0000000000000E+00
(PID.TID 0000.0001) %MON forcing_empmr_sd             =   0.0000000000000E+00
(PID.TID 0000.0001) %MON forcing_empmr_del2           =   0.0000000000000E+00
(PID.TID 0000.0001) %MON forcing_fu_max               =   1.7087798907214E-06
(PID.TID 0000.0001) %MON forcing_fu_min               =  -1.7087780717138E-06
(PID.TID 0000.0001) %MON forcing_fu_mean              =   8.6676928457367E-13
(PID.TID 0000.0001) %MON forcing_fu_sd                =   8.2759680944329E-07
(PID.TID 0000.0001) %MON forcing_fu_del2              =   4.2178678282790E-09
(PID.TID 0000.0001) %MON forcing_fv_max               =   0.0000000000000E+00
(PID.TID 0000.0001) %MON forcing_fv_min               =  -7.4962518740629E-05
(PID.TID 0000.0001) %MON forcing_fv_mean              =  -5.0354401828758E-06
(PID.TID 0000.0001) %MON forcing_fv_sd                =   7.3901631737728E-06
(PID.TID 0000.0001) %MON forcing_fv_del2              =   1.1021994748119E-07
(PID.TID 0000.0001) %MON trAdv_CFL_u_max              =   0.0000000000000E+00
(PID.TID 0000.0001) %MON trAdv_CFL_v_max              =   0.0000000000000E+00
(PID.TID 0000.0001) %MON trAdv_CFL_w_max              =   0.0000000000000E+00
(PID.TID 0000.0001) %MON advcfl_uvel_max              =   0.0000000000000E+00
(PID.TID 0000.0001) %MON advcfl_vvel_max              =   0.0000000000000E+00
(PID.TID 0000.0001) %MON advcfl_wvel_max              =   0.0000000000000E+00
(PID.TID 0000.0001) %MON advcfl_W_hf_max              =   0.0000000000000E+00
(PID.TID 0000.0001) %MON pe_b_mean                    =   0.0000000000000E+00
(PID.TID 0000.0001) %MON ke_max                       =   0.0000000000000E+00
(PID.TID 0000.0001) %MON ke_mean                      =   0.0000000000000E+00
(PID.TID 0000.0001) %MON ke_vol                       =   4.6550000000000E+10
(PID.TID 0000.0001) %MON vort_r_min                   =   0.0000000000000E+00
(PID.TID 0000.0001) %MON vort_r_max                   =   0.0000000000000E+00
(PID.TID 0000.0001) %MON vort_a_mean                  =   0.0000000000000E+00
(PID.TID 0000.0001) %MON vort_a_sd                    =   0.0000000000000E+00
(PID.TID 0000.0001) %MON vort_p_mean                  =   0.0000000000000E+00
(PID.TID 0000.0001) %MON vort_p_sd                    =   0.0000000000000E+00
(PID.TID 0000.0001) %MON surfExpan_theta_mean         =   0.0000000000000E+00
(PID.TID 0000.0001) %MON surfExpan_salt_mean          =   0.0000000000000E+00
(PID.TID 0000.0001) // =======================================================
(PID.TID 0000.0001) // End MONITOR dynamic field statistics
(PID.TID 0000.0001) // =======================================================
(PID.TID 0000.0001) // =======================================================
(PID.TID 0000.0001) // Begin OBCS MONITOR field statistics
(PID.TID 0000.0001) // =======================================================
(PID.TID 0000.0001) %MON obc_E_uVel_max               =   0.0000000000000E+00
(PID.TID 0000.0001) %MON obc_E_uVel_min               =   0.0000000000000E+00
(PID.TID 0000.0001) %MON obc_E_uVel_mean              =   0.0000000000000E+00
(PID.TID 0000.0001) %MON obc_E_uVel_sd                =   0.0000000000000E+00
(PID.TID 0000.0001) %MON obc_E_uVel_Int               =   0.0000000000000E+00
(PID.TID 0000.0001) %MON obc_W_uVel_max               =   0.0000000000000E+00
(PID.TID 0000.0001) %MON obc_W_uVel_min               =   0.0000000000000E+00
(PID.TID 0000.0001) %MON obc_W_uVel_mean              =   0.0000000000000E+00
(PID.TID 0000.0001) %MON obc_W_uVel_sd                =   0.0000000000000E+00
(PID.TID 0000.0001) %MON obc_W_uVel_Int               =   0.0000000000000E+00
(PID.TID 0000.0001) %MON obc_N_vVel_max               =   0.0000000000000E+00
(PID.TID 0000.0001) %MON obc_N_vVel_min               =   0.0000000000000E+00
(PID.TID 0000.0001) %MON obc_N_vVel_mean              =   0.0000000000000E+00
(PID.TID 0000.0001) %MON obc_N_vVel_sd                =   0.0000000000000E+00
(PID.TID 0000.0001) %MON obc_N_vVel_Int               =   0.0000000000000E+00
(PID.TID 0000.0001) // =======================================================
(PID.TID 0000.0001) // End OBCS MONITOR field statistics
(PID.TID 0000.0001) // =======================================================
(PID.TID 0000.0001) // =======================================================
(PID.TID 0000.0001) // Begin MONITOR SEAICE statistics
(PID.TID 0000.0001) // =======================================================
(PID.TID 0000.0001) %MON seaice_tsnumber              =                     6
(PID.TID 0000.0001) %MON seaice_time_sec              =   6.0000000000000E-01
(PID.TID 0000.0001) %MON seaice_uice_max              =   7.2890802058655E-06
(PID.TID 0000.0001) %MON seaice_uice_min              =  -7.2862125893064E-06
(PID.TID 0000.0001) %MON seaice_uice_mean             =   3.9613075882594E-12
(PID.TID 0000.0001) %MON seaice_uice_sd               =   3.5428013426137E-06
(PID.TID 0000.0001) %MON seaice_uice_del2             =   3.4655543482122E-08
(PID.TID 0000.0001) %MON seaice_vice_max              =   0.0000000000000E+00
(PID.TID 0000.0001) %MON seaice_vice_min              =  -2.9985007496252E-04
(PID.TID 0000.0001) %MON seaice_vice_mean             =  -2.1727568938142E-05
(PID.TID 0000.0001) %MON seaice_vice_sd               =   3.1351750379245E-05
(PID.TID 0000.0001) %MON seaice_vice_del2             =   4.5113571516436E-07
(PID.TID 0000.0001) %MON seaice_area_max              =   1.0000000000000E+00
(PID.TID 0000.0001) %MON seaice_area_min              =   0.0000000000000E+00
(PID.TID 0000.0001) %MON seaice_area_mean             =   8.4210526315789E-01
(PID.TID 0000.0001) %MON seaice_area_sd               =   3.6464227527766E-01
(PID.TID 0000.0001) %MON seaice_area_del2             =   5.3165923397485E-03
(PID.TID 0000.0001) %MON seaice_heff_max              =   1.0000003630979E+00
(PID.TID 0000.0001) %MON seaice_heff_min              =   0.0000000000000E+00
(PID.TID 0000.0001) %MON seaice_heff_mean             =   8.4210526633943E-01
(PID.TID 0000.0001) %MON seaice_heff_sd               =   3.6464227665531E-01
(PID.TID 0000.0001) %MON seaice_heff_del2             =   5.3165923595977E-03
(PID.TID 0000.0001) %MON seaice_hsnow_max             =   2.0000007261959E-01
(PID.TID 0000.0001) %MON seaice_hsnow_min             =   0.0000000000000E+00
(PID.TID 0000.0001) %MON seaice_hsnow_mean            =   1.6842105326789E-01
(PID.TID 0000.0001) %MON seaice_hsnow_sd              =   7.2928455331062E-02
(PID.TID 0000.0001) %MON seaice_hsnow_del2            =   1.0633184719195E-03
(PID.TID 0000.0001) // =======================================================
(PID.TID 0000.0001) // End MONITOR SEAICE statistics
(PID.TID 0000.0001) // =======================================================
 Computing Diagnostic #    216  SIsig11      Counter:       1   Parms: SM      M1      
 Computing Diagnostic #    217  SIsig22      Counter:       1   Parms: SM      M1      
 Computing Diagnostic #    155  SIuice       Counter:       1   Parms: UU      M1      
           Vector  Mate for  SIuice       Diagnostic #    156  SIvice   exists 
 Computing Diagnostic #    156  SIvice       Counter:       1   Parms: VV      M1      
           Vector  Mate for  SIvice       Diagnostic #    155  SIuice   exists 
 Computing Diagnostic #    146  SIarea       Counter:       1   Parms: SM      M1      
 Computing Diagnostic #    149  SIheff       Counter:       1   Parms: SM      M1      
 Computing Diagnostic #    219  SIeps11      Counter:       1   Parms: SM      M1      
 Computing Diagnostic #    220  SIeps22      Counter:       1   Parms: SM      M1      
 Computing Diagnostic #    218  SIsig12      Counter:       1   Parms: SM      M1      
 Computing Diagnostic #    221  SIeps12      Counter:       1   Parms: SM      M1      
 SEAICE_LSR: Residual Initial ipass,Uice,Vice=    1  5.32575251E+00  1.49214940E+00
 SEAICE_LSR (ipass=   1) iters,dU,Resid=    94  9.92452634E-12  3.36862885E-04
 SEAICE_LSR (ipass=   1) iters,dV,Resid=  1500  1.96362416E-11  1.68272947E-03
 SEAICE_LSR: Residual Initial ipass,Uice,Vice=    2  5.32892253E+00  1.49402889E+00
 SEAICE_LSR (ipass=   2) iters,dU,Resid=    94  9.81582297E-12  3.26044449E-04
 SEAICE_LSR (ipass=   2) iters,dV,Resid=  1500  1.87954467E-11  1.58483063E-03
 SEAICE_LSR: Residual Initial ipass,Uice,Vice=    3  5.33090628E+00  1.49730316E+00
 SEAICE_LSR (ipass=   3) iters,dU,Resid=    94  9.70253056E-12  3.15475388E-04
 SEAICE_LSR (ipass=   3) iters,dV,Resid=  1500  1.79865353E-11  1.49254699E-03
 SEAICE_LSR: Residual Initial ipass,Uice,Vice=    4  5.33237527E+00  1.50116217E+00
 SEAICE_LSR (ipass=   4) iters,dU,Resid=    94  9.58952162E-12  3.05317234E-04
 SEAICE_LSR (ipass=   4) iters,dV,Resid=  1500  1.72140216E-11  1.40605539E-03
 SEAICE_LSR: Residual Initial ipass,Uice,Vice=    5  5.33358717E+00  1.50540839E+00
 SEAICE_LSR (ipass=   5) iters,dU,Resid=    94  9.47915821E-12  2.95631438E-04
 SEAICE_LSR (ipass=   5) iters,dV,Resid=  1500  1.64792757E-11  1.32523413E-03
 SEAICE_LSR: Residual Initial ipass,Uice,Vice=    6  5.33466675E+00  1.50995401E+00
 SEAICE_LSR (ipass=   6) iters,dU,Resid=    94  9.37267232E-12  2.86435203E-04
 SEAICE_LSR (ipass=   6) iters,dV,Resid=  1500  1.57820905E-11  1.24982759E-03
 SEAICE_LSR: Residual Initial ipass,Uice,Vice=    7  5.33568062E+00  1.51475391E+00
 SEAICE_LSR (ipass=   7) iters,dU,Resid=    94  9.27070102E-12  2.77723947E-04
 SEAICE_LSR (ipass=   7) iters,dV,Resid=  1500  1.51214558E-11  1.17952448E-03
 SEAICE_LSR: Residual Initial ipass,Uice,Vice=    8  5.33666618E+00  1.51978506E+00
 SEAICE_LSR (ipass=   8) iters,dU,Resid=    94  9.17353756E-12  2.69481816E-04
 SEAICE_LSR (ipass=   8) iters,dV,Resid=  1500  1.44959619E-11  1.11399674E-03
 SEAICE_LSR: Residual Initial ipass,Uice,Vice=    9  5.33764513E+00  1.52503666E+00
 SEAICE_LSR (ipass=   9) iters,dU,Resid=    94  9.08126455E-12  2.61687129E-04
 SEAICE_LSR (ipass=   9) iters,dV,Resid=  1500  1.39040171E-11  1.05291911E-03
 SEAICE_LSR: Residual Initial ipass,Uice,Vice=   10  5.33863025E+00  1.53050520E+00
 SEAICE_LSR (ipass=  10) iters,dU,Resid=    94  8.99383118E-12  2.54315403E-04
 SEAICE_LSR (ipass=  10) iters,dV,Resid=  1500  1.33439661E-11  9.95978752E-04
(PID.TID 0000.0001) // =======================================================
(PID.TID 0000.0001) // Begin MONITOR dynamic field statistics
(PID.TID 0000.0001) // =======================================================
(PID.TID 0000.0001) %MON time_tsnumber                =                     7
(PID.TID 0000.0001) %MON time_secondsf                =   7.0000000000000E-01
(PID.TID 0000.0001) %MON dynstat_eta_max              =   0.0000000000000E+00
(PID.TID 0000.0001) %MON dynstat_eta_min              =   0.0000000000000E+00
(PID.TID 0000.0001) %MON dynstat_eta_mean             =   0.0000000000000E+00
(PID.TID 0000.0001) %MON dynstat_eta_sd               =   0.0000000000000E+00
(PID.TID 0000.0001) %MON dynstat_eta_del2             =   0.0000000000000E+00
(PID.TID 0000.0001) %MON dynstat_uvel_max             =   0.0000000000000E+00
(PID.TID 0000.0001) %MON dynstat_uvel_min             =   0.0000000000000E+00
(PID.TID 0000.0001) %MON dynstat_uvel_mean            =   0.0000000000000E+00
(PID.TID 0000.0001) %MON dynstat_uvel_sd              =   0.0000000000000E+00
(PID.TID 0000.0001) %MON dynstat_uvel_del2            =   0.0000000000000E+00
(PID.TID 0000.0001) %MON dynstat_vvel_max             =   0.0000000000000E+00
(PID.TID 0000.0001) %MON dynstat_vvel_min             =   0.0000000000000E+00
(PID.TID 0000.0001) %MON dynstat_vvel_mean            =   0.0000000000000E+00
(PID.TID 0000.0001) %MON dynstat_vvel_sd              =   0.0000000000000E+00
(PID.TID 0000.0001) %MON dynstat_vvel_del2            =   0.0000000000000E+00
(PID.TID 0000.0001) %MON dynstat_wvel_max             =  -0.0000000000000E+00
(PID.TID 0000.0001) %MON dynstat_wvel_min             =  -0.0000000000000E+00
(PID.TID 0000.0001) %MON dynstat_wvel_mean            =   0.0000000000000E+00
(PID.TID 0000.0001) %MON dynstat_wvel_sd              =   0.0000000000000E+00
(PID.TID 0000.0001) %MON dynstat_wvel_del2            =   0.0000000000000E+00
(PID.TID 0000.0001) %MON dynstat_theta_max            =   2.4000000000000E+01
(PID.TID 0000.0001) %MON dynstat_theta_min            =   2.4000000000000E+01
(PID.TID 0000.0001) %MON dynstat_theta_mean           =   2.4000000000000E+01
(PID.TID 0000.0001) %MON dynstat_theta_sd             =   0.0000000000000E+00
(PID.TID 0000.0001) %MON dynstat_theta_del2           =   0.0000000000000E+00
(PID.TID 0000.0001) %MON dynstat_salt_max             =   3.4650000000000E+01
(PID.TID 0000.0001) %MON dynstat_salt_min             =   3.4650000000000E+01
(PID.TID 0000.0001) %MON dynstat_salt_mean            =   3.4650000000000E+01
(PID.TID 0000.0001) %MON dynstat_salt_sd              =   0.0000000000000E+00
(PID.TID 0000.0001) %MON dynstat_salt_del2            =   0.0000000000000E+00
(PID.TID 0000.0001) %MON dynstat_sst_max              =   2.4000000000000E+01
(PID.TID 0000.0001) %MON dynstat_sst_min              =   2.4000000000000E+01
(PID.TID 0000.0001) %MON dynstat_sst_mean             =   2.4000000000000E+01
(PID.TID 0000.0001) %MON dynstat_sst_sd               =   0.0000000000000E+00
(PID.TID 0000.0001) %MON dynstat_sst_del2             =   0.0000000000000E+00
(PID.TID 0000.0001) %MON dynstat_sss_max              =   3.4650000000000E+01
(PID.TID 0000.0001) %MON dynstat_sss_min              =   3.4650000000000E+01
(PID.TID 0000.0001) %MON dynstat_sss_mean             =   3.4650000000000E+01
(PID.TID 0000.0001) %MON dynstat_sss_sd               =   0.0000000000000E+00
(PID.TID 0000.0001) %MON dynstat_sss_del2             =   0.0000000000000E+00
(PID.TID 0000.0001) %MON forcing_qnet_max             =   0.0000000000000E+00
(PID.TID 0000.0001) %MON forcing_qnet_min             =   0.0000000000000E+00
(PID.TID 0000.0001) %MON forcing_qnet_mean            =   0.0000000000000E+00
(PID.TID 0000.0001) %MON forcing_qnet_sd              =   0.0000000000000E+00
(PID.TID 0000.0001) %MON forcing_qnet_del2            =   0.0000000000000E+00
(PID.TID 0000.0001) %MON forcing_qsw_max              =   0.0000000000000E+00
(PID.TID 0000.0001) %MON forcing_qsw_min              =   0.0000000000000E+00
(PID.TID 0000.0001) %MON forcing_qsw_mean             =   0.0000000000000E+00
(PID.TID 0000.0001) %MON forcing_qsw_sd               =   0.0000000000000E+00
(PID.TID 0000.0001) %MON forcing_qsw_del2             =   0.0000000000000E+00
(PID.TID 0000.0001) %MON forcing_empmr_max            =   0.0000000000000E+00
(PID.TID 0000.0001) %MON forcing_empmr_min            =   0.0000000000000E+00
(PID.TID 0000.0001) %MON forcing_empmr_mean           =   0.0000000000000E+00
(PID.TID 0000.0001) %MON forcing_empmr_sd             =   0.0000000000000E+00
(PID.TID 0000.0001) %MON forcing_empmr_del2           =   0.0000000000000E+00
(PID.TID 0000.0001) %MON forcing_fu_max               =   2.0397712535560E-06
(PID.TID 0000.0001) %MON forcing_fu_min               =  -2.0397692266500E-06
(PID.TID 0000.0001) %MON forcing_fu_mean              =   9.3776208049123E-13
(PID.TID 0000.0001) %MON forcing_fu_sd                =   9.9368064153189E-07
(PID.TID 0000.0001) %MON forcing_fu_del2              =   5.0745653186589E-09
(PID.TID 0000.0001) %MON forcing_fv_max               =   0.0000000000000E+00
(PID.TID 0000.0001) %MON forcing_fv_min               =  -8.7456271864070E-05
(PID.TID 0000.0001) %MON forcing_fv_mean              =  -5.9926421683961E-06
(PID.TID 0000.0001) %MON forcing_fv_sd                =   8.6472770903111E-06
(PID.TID 0000.0001) %MON forcing_fv_del2              =   1.2845593811869E-07
(PID.TID 0000.0001) %MON trAdv_CFL_u_max              =   0.0000000000000E+00
(PID.TID 0000.0001) %MON trAdv_CFL_v_max              =   0.0000000000000E+00
(PID.TID 0000.0001) %MON trAdv_CFL_w_max              =   0.0000000000000E+00
(PID.TID 0000.0001) %MON advcfl_uvel_max              =   0.0000000000000E+00
(PID.TID 0000.0001) %MON advcfl_vvel_max              =   0.0000000000000E+00
(PID.TID 0000.0001) %MON advcfl_wvel_max              =   0.0000000000000E+00
(PID.TID 0000.0001) %MON advcfl_W_hf_max              =   0.0000000000000E+00
(PID.TID 0000.0001) %MON pe_b_mean                    =   0.0000000000000E+00
(PID.TID 0000.0001) %MON ke_max                       =   0.0000000000000E+00
(PID.TID 0000.0001) %MON ke_mean                      =   0.0000000000000E+00
(PID.TID 0000.0001) %MON ke_vol                       =   4.6550000000000E+10
(PID.TID 0000.0001) %MON vort_r_min                   =   0.0000000000000E+00
(PID.TID 0000.0001) %MON vort_r_max                   =   0.0000000000000E+00
(PID.TID 0000.0001) %MON vort_a_mean                  =   0.0000000000000E+00
(PID.TID 0000.0001) %MON vort_a_sd                    =   0.0000000000000E+00
(PID.TID 0000.0001) %MON vort_p_mean                  =   0.0000000000000E+00
(PID.TID 0000.0001) %MON vort_p_sd                    =   0.0000000000000E+00
(PID.TID 0000.0001) %MON surfExpan_theta_mean         =   0.0000000000000E+00
(PID.TID 0000.0001) %MON surfExpan_salt_mean          =   0.0000000000000E+00
(PID.TID 0000.0001) // =======================================================
(PID.TID 0000.0001) // End MONITOR dynamic field statistics
(PID.TID 0000.0001) // =======================================================
(PID.TID 0000.0001) // =======================================================
(PID.TID 0000.0001) // Begin OBCS MONITOR field statistics
(PID.TID 0000.0001) // =======================================================
(PID.TID 0000.0001) %MON obc_E_uVel_max               =   0.0000000000000E+00
(PID.TID 0000.0001) %MON obc_E_uVel_min               =   0.0000000000000E+00
(PID.TID 0000.0001) %MON obc_E_uVel_mean              =   0.0000000000000E+00
(PID.TID 0000.0001) %MON obc_E_uVel_sd                =   0.0000000000000E+00
(PID.TID 0000.0001) %MON obc_E_uVel_Int               =   0.0000000000000E+00
(PID.TID 0000.0001) %MON obc_W_uVel_max               =   0.0000000000000E+00
(PID.TID 0000.0001) %MON obc_W_uVel_min               =   0.0000000000000E+00
(PID.TID 0000.0001) %MON obc_W_uVel_mean              =   0.0000000000000E+00
(PID.TID 0000.0001) %MON obc_W_uVel_sd                =   0.0000000000000E+00
(PID.TID 0000.0001) %MON obc_W_uVel_Int               =   0.0000000000000E+00
(PID.TID 0000.0001) %MON obc_N_vVel_max               =   0.0000000000000E+00
(PID.TID 0000.0001) %MON obc_N_vVel_min               =   0.0000000000000E+00
(PID.TID 0000.0001) %MON obc_N_vVel_mean              =   0.0000000000000E+00
(PID.TID 0000.0001) %MON obc_N_vVel_sd                =   0.0000000000000E+00
(PID.TID 0000.0001) %MON obc_N_vVel_Int               =   0.0000000000000E+00
(PID.TID 0000.0001) // =======================================================
(PID.TID 0000.0001) // End OBCS MONITOR field statistics
(PID.TID 0000.0001) // =======================================================
(PID.TID 0000.0001) // =======================================================
(PID.TID 0000.0001) // Begin MONITOR SEAICE statistics
(PID.TID 0000.0001) // =======================================================
(PID.TID 0000.0001) %MON seaice_tsnumber              =                     7
(PID.TID 0000.0001) %MON seaice_time_sec              =   7.0000000000000E-01
(PID.TID 0000.0001) %MON seaice_uice_max              =   9.6297301976551E-06
(PID.TID 0000.0001) %MON seaice_uice_min              =  -9.6266536286486E-06
(PID.TID 0000.0001) %MON seaice_uice_mean             =   4.2788763946514E-12
(PID.TID 0000.0001) %MON seaice_uice_sd               =   4.2538706379069E-06
(PID.TID 0000.0001) %MON seaice_uice_del2             =   4.1702004169795E-08
(PID.TID 0000.0001) %MON seaice_vice_max              =   0.0000000000000E+00
(PID.TID 0000.0001) %MON seaice_vice_min              =  -3.4982508745628E-04
(PID.TID 0000.0001) %MON seaice_vice_mean             =  -2.5850883989952E-05
(PID.TID 0000.0001) %MON seaice_vice_sd               =   3.6652801238995E-05
(PID.TID 0000.0001) %MON seaice_vice_del2             =   5.2563479875624E-07
(PID.TID 0000.0001) %MON seaice_area_max              =   1.0000000000000E+00
(PID.TID 0000.0001) %MON seaice_area_min              =   0.0000000000000E+00
(PID.TID 0000.0001) %MON seaice_area_mean             =   8.4210526315789E-01
(PID.TID 0000.0001) %MON seaice_area_sd               =   3.6464227527766E-01
(PID.TID 0000.0001) %MON seaice_area_del2             =   5.3165923397485E-03
(PID.TID 0000.0001) %MON seaice_heff_max              =   1.0000004831890E+00
(PID.TID 0000.0001) %MON seaice_heff_min              =   0.0000000000000E+00
(PID.TID 0000.0001) %MON seaice_heff_mean             =   8.4210526738314E-01
(PID.TID 0000.0001) %MON seaice_heff_sd               =   3.6464227710725E-01
(PID.TID 0000.0001) %MON seaice_heff_del2             =   5.3165923660928E-03
(PID.TID 0000.0001) %MON seaice_hsnow_max             =   2.0000009663781E-01
(PID.TID 0000.0001) %MON seaice_hsnow_min             =   0.0000000000000E+00
(PID.TID 0000.0001) %MON seaice_hsnow_mean            =   1.6842105347663E-01
(PID.TID 0000.0001) %MON seaice_hsnow_sd              =   7.2928455421449E-02
(PID.TID 0000.0001) %MON seaice_hsnow_del2            =   1.0633184732186E-03
(PID.TID 0000.0001) // =======================================================
(PID.TID 0000.0001) // End MONITOR SEAICE statistics
(PID.TID 0000.0001) // =======================================================
 Computing Diagnostic #    216  SIsig11      Counter:       1   Parms: SM      M1      
 Computing Diagnostic #    217  SIsig22      Counter:       1   Parms: SM      M1      
 Computing Diagnostic #    155  SIuice       Counter:       1   Parms: UU      M1      
           Vector  Mate for  SIuice       Diagnostic #    156  SIvice   exists 
 Computing Diagnostic #    156  SIvice       Counter:       1   Parms: VV      M1      
           Vector  Mate for  SIvice       Diagnostic #    155  SIuice   exists 
 Computing Diagnostic #    146  SIarea       Counter:       1   Parms: SM      M1      
 Computing Diagnostic #    149  SIheff       Counter:       1   Parms: SM      M1      
 Computing Diagnostic #    219  SIeps11      Counter:       1   Parms: SM      M1      
 Computing Diagnostic #    220  SIeps22      Counter:       1   Parms: SM      M1      
 Computing Diagnostic #    218  SIsig12      Counter:       1   Parms: SM      M1      
 Computing Diagnostic #    221  SIeps12      Counter:       1   Parms: SM      M1      
 SEAICE_LSR: Residual Initial ipass,Uice,Vice=    1  5.34060813E+00  1.54243445E+00
 SEAICE_LSR (ipass=   1) iters,dU,Resid=    94  8.84089716E-12  2.40908155E-04
 SEAICE_LSR (ipass=   1) iters,dV,Resid=  1500  1.26379747E-11  9.15659744E-04
 SEAICE_LSR: Residual Initial ipass,Uice,Vice=    2  5.34361020E+00  1.54688140E+00
 SEAICE_LSR (ipass=   2) iters,dU,Resid=    94  8.80132202E-12  2.35623122E-04
 SEAICE_LSR (ipass=   2) iters,dV,Resid=  1500  1.21815023E-11  8.70493510E-04
 SEAICE_LSR: Residual Initial ipass,Uice,Vice=    3  5.34566965E+00  1.55257070E+00
 SEAICE_LSR (ipass=   3) iters,dU,Resid=    94  8.75621747E-12  2.30351539E-04
 SEAICE_LSR (ipass=   3) iters,dV,Resid=  1500  1.17410484E-11  8.27630397E-04
 SEAICE_LSR: Residual Initial ipass,Uice,Vice=    4  5.34733520E+00  1.55886022E+00
 SEAICE_LSR (ipass=   4) iters,dU,Resid=    94  8.70908345E-12  2.25193937E-04
 SEAICE_LSR (ipass=   4) iters,dV,Resid=  1500  1.13194501E-11  7.87204737E-04
 SEAICE_LSR: Residual Initial ipass,Uice,Vice=    5  5.34880724E+00  1.56560012E+00
 SEAICE_LSR (ipass=   5) iters,dU,Resid=    94  8.66159729E-12  2.20192901E-04
 SEAICE_LSR (ipass=   5) iters,dV,Resid=  1500  1.09176644E-11  7.49199790E-04
 SEAICE_LSR: Residual Initial ipass,Uice,Vice=    6  5.35018132E+00  1.57272880E+00
 SEAICE_LSR (ipass=   6) iters,dU,Resid=    94  8.62271892E-12  2.15366519E-04
 SEAICE_LSR (ipass=   6) iters,dV,Resid=  1500  1.05357094E-11  7.13529228E-04
 SEAICE_LSR: Residual Initial ipass,Uice,Vice=    7  5.35150825E+00  1.58021995E+00
 SEAICE_LSR (ipass=   7) iters,dU,Resid=    94  8.58902709E-12  2.10720706E-04
 SEAICE_LSR (ipass=   7) iters,dV,Resid=  1500  1.01731264E-11  6.80075846E-04
 SEAICE_LSR: Residual Initial ipass,Uice,Vice=    8  5.35281661E+00  1.58806511E+00
 SEAICE_LSR (ipass=   8) iters,dU,Resid=    94  8.55647738E-12  2.06254730E-04
 SEAICE_LSR (ipass=   8) iters,dV,Resid=  1496  9.99477521E-12  6.59637350E-04
 SEAICE_LSR: Residual Initial ipass,Uice,Vice=    9  5.35411508E+00  1.59627076E+00
 SEAICE_LSR (ipass=   9) iters,dU,Resid=    94  8.52516422E-12  2.01961955E-04
 SEAICE_LSR (ipass=   9) iters,dV,Resid=  1488  9.99464274E-12  6.51331162E-04
 SEAICE_LSR: Residual Initial ipass,Uice,Vice=   10  5.35540986E+00  1.60484401E+00
 SEAICE_LSR (ipass=  10) iters,dU,Resid=    92  9.99112616E-12  2.33599419E-04
 SEAICE_LSR (ipass=  10) iters,dV,Resid=  1482  9.92099897E-12  6.38504667E-04
(PID.TID 0000.0001) // =======================================================
(PID.TID 0000.0001) // Begin MONITOR dynamic field statistics
(PID.TID 0000.0001) // =======================================================
(PID.TID 0000.0001) %MON time_tsnumber                =                     8
(PID.TID 0000.0001) %MON time_secondsf                =   8.0000000000000E-01
(PID.TID 0000.0001) %MON dynstat_eta_max              =   0.0000000000000E+00
(PID.TID 0000.0001) %MON dynstat_eta_min              =   0.0000000000000E+00
(PID.TID 0000.0001) %MON dynstat_eta_mean             =   0.0000000000000E+00
(PID.TID 0000.0001) %MON dynstat_eta_sd               =   0.0000000000000E+00
(PID.TID 0000.0001) %MON dynstat_eta_del2             =   0.0000000000000E+00
(PID.TID 0000.0001) %MON dynstat_uvel_max             =   0.0000000000000E+00
(PID.TID 0000.0001) %MON dynstat_uvel_min             =   0.0000000000000E+00
(PID.TID 0000.0001) %MON dynstat_uvel_mean            =   0.0000000000000E+00
(PID.TID 0000.0001) %MON dynstat_uvel_sd              =   0.0000000000000E+00
(PID.TID 0000.0001) %MON dynstat_uvel_del2            =   0.0000000000000E+00
(PID.TID 0000.0001) %MON dynstat_vvel_max             =   0.0000000000000E+00
(PID.TID 0000.0001) %MON dynstat_vvel_min             =   0.0000000000000E+00
(PID.TID 0000.0001) %MON dynstat_vvel_mean            =   0.0000000000000E+00
(PID.TID 0000.0001) %MON dynstat_vvel_sd              =   0.0000000000000E+00
(PID.TID 0000.0001) %MON dynstat_vvel_del2            =   0.0000000000000E+00
(PID.TID 0000.0001) %MON dynstat_wvel_max             =  -0.0000000000000E+00
(PID.TID 0000.0001) %MON dynstat_wvel_min             =  -0.0000000000000E+00
(PID.TID 0000.0001) %MON dynstat_wvel_mean            =   0.0000000000000E+00
(PID.TID 0000.0001) %MON dynstat_wvel_sd              =   0.0000000000000E+00
(PID.TID 0000.0001) %MON dynstat_wvel_del2            =   0.0000000000000E+00
(PID.TID 0000.0001) %MON dynstat_theta_max            =   2.4000000000000E+01
(PID.TID 0000.0001) %MON dynstat_theta_min            =   2.4000000000000E+01
(PID.TID 0000.0001) %MON dynstat_theta_mean           =   2.4000000000000E+01
(PID.TID 0000.0001) %MON dynstat_theta_sd             =   0.0000000000000E+00
(PID.TID 0000.0001) %MON dynstat_theta_del2           =   0.0000000000000E+00
(PID.TID 0000.0001) %MON dynstat_salt_max             =   3.4650000000000E+01
(PID.TID 0000.0001) %MON dynstat_salt_min             =   3.4650000000000E+01
(PID.TID 0000.0001) %MON dynstat_salt_mean            =   3.4650000000000E+01
(PID.TID 0000.0001) %MON dynstat_salt_sd              =   0.0000000000000E+00
(PID.TID 0000.0001) %MON dynstat_salt_del2            =   0.0000000000000E+00
(PID.TID 0000.0001) %MON dynstat_sst_max              =   2.4000000000000E+01
(PID.TID 0000.0001) %MON dynstat_sst_min              =   2.4000000000000E+01
(PID.TID 0000.0001) %MON dynstat_sst_mean             =   2.4000000000000E+01
(PID.TID 0000.0001) %MON dynstat_sst_sd               =   0.0000000000000E+00
(PID.TID 0000.0001) %MON dynstat_sst_del2             =   0.0000000000000E+00
(PID.TID 0000.0001) %MON dynstat_sss_max              =   3.4650000000000E+01
(PID.TID 0000.0001) %MON dynstat_sss_min              =   3.4650000000000E+01
(PID.TID 0000.0001) %MON dynstat_sss_mean             =   3.4650000000000E+01
(PID.TID 0000.0001) %MON dynstat_sss_sd               =   0.0000000000000E+00
(PID.TID 0000.0001) %MON dynstat_sss_del2             =   0.0000000000000E+00
(PID.TID 0000.0001) %MON forcing_qnet_max             =   0.0000000000000E+00
(PID.TID 0000.0001) %MON forcing_qnet_min             =   0.0000000000000E+00
(PID.TID 0000.0001) %MON forcing_qnet_mean            =   0.0000000000000E+00
(PID.TID 0000.0001) %MON forcing_qnet_sd              =   0.0000000000000E+00
(PID.TID 0000.0001) %MON forcing_qnet_del2            =   0.0000000000000E+00
(PID.TID 0000.0001) %MON forcing_qsw_max              =   0.0000000000000E+00
(PID.TID 0000.0001) %MON forcing_qsw_min              =   0.0000000000000E+00
(PID.TID 0000.0001) %MON forcing_qsw_mean             =   0.0000000000000E+00
(PID.TID 0000.0001) %MON forcing_qsw_sd               =   0.0000000000000E+00
(PID.TID 0000.0001) %MON forcing_qsw_del2             =   0.0000000000000E+00
(PID.TID 0000.0001) %MON forcing_empmr_max            =   0.0000000000000E+00
(PID.TID 0000.0001) %MON forcing_empmr_min            =   0.0000000000000E+00
(PID.TID 0000.0001) %MON forcing_empmr_mean           =   0.0000000000000E+00
(PID.TID 0000.0001) %MON forcing_empmr_sd             =   0.0000000000000E+00
(PID.TID 0000.0001) %MON forcing_empmr_del2           =   0.0000000000000E+00
(PID.TID 0000.0001) %MON forcing_fu_max               =   2.3739188323477E-06
(PID.TID 0000.0001) %MON forcing_fu_min               =  -2.3739167182878E-06
(PID.TID 0000.0001) %MON forcing_fu_mean              =   9.9042076904972E-13
(PID.TID 0000.0001) %MON forcing_fu_sd                =   1.1624389058115E-06
(PID.TID 0000.0001) %MON forcing_fu_del2              =   5.9526386675793E-09
(PID.TID 0000.0001) %MON forcing_fv_max               =   0.0000000000000E+00
(PID.TID 0000.0001) %MON forcing_fv_min               =  -9.9950024987505E-05
(PID.TID 0000.0001) %MON forcing_fv_mean              =  -6.9757776627806E-06
(PID.TID 0000.0001) %MON forcing_fv_sd                =   9.9088691951045E-06
(PID.TID 0000.0001) %MON forcing_fv_del2              =   1.4665733647210E-07
(PID.TID 0000.0001) %MON trAdv_CFL_u_max              =   0.0000000000000E+00
(PID.TID 0000.0001) %MON trAdv_CFL_v_max              =   0.0000000000000E+00
(PID.TID 0000.0001) %MON trAdv_CFL_w_max              =   0.0000000000000E+00
(PID.TID 0000.0001) %MON advcfl_uvel_max              =   0.0000000000000E+00
(PID.TID 0000.0001) %MON advcfl_vvel_max              =   0.0000000000000E+00
(PID.TID 0000.0001) %MON advcfl_wvel_max              =   0.0000000000000E+00
(PID.TID 0000.0001) %MON advcfl_W_hf_max              =   0.0000000000000E+00
(PID.TID 0000.0001) %MON pe_b_mean                    =   0.0000000000000E+00
(PID.TID 0000.0001) %MON ke_max                       =   0.0000000000000E+00
(PID.TID 0000.0001) %MON ke_mean                      =   0.0000000000000E+00
(PID.TID 0000.0001) %MON ke_vol                       =   4.6550000000000E+10
(PID.TID 0000.0001) %MON vort_r_min                   =   0.0000000000000E+00
(PID.TID 0000.0001) %MON vort_r_max                   =   0.0000000000000E+00
(PID.TID 0000.0001) %MON vort_a_mean                  =   0.0000000000000E+00
(PID.TID 0000.0001) %MON vort_a_sd                    =   0.0000000000000E+00
(PID.TID 0000.0001) %MON vort_p_mean                  =   0.0000000000000E+00
(PID.TID 0000.0001) %MON vort_p_sd                    =   0.0000000000000E+00
(PID.TID 0000.0001) %MON surfExpan_theta_mean         =   0.0000000000000E+00
(PID.TID 0000.0001) %MON surfExpan_salt_mean          =   0.0000000000000E+00
(PID.TID 0000.0001) // =======================================================
(PID.TID 0000.0001) // End MONITOR dynamic field statistics
(PID.TID 0000.0001) // =======================================================
(PID.TID 0000.0001) // =======================================================
(PID.TID 0000.0001) // Begin OBCS MONITOR field statistics
(PID.TID 0000.0001) // =======================================================
(PID.TID 0000.0001) %MON obc_E_uVel_max               =   0.0000000000000E+00
(PID.TID 0000.0001) %MON obc_E_uVel_min               =   0.0000000000000E+00
(PID.TID 0000.0001) %MON obc_E_uVel_mean              =   0.0000000000000E+00
(PID.TID 0000.0001) %MON obc_E_uVel_sd                =   0.0000000000000E+00
(PID.TID 0000.0001) %MON obc_E_uVel_Int               =   0.0000000000000E+00
(PID.TID 0000.0001) %MON obc_W_uVel_max               =   0.0000000000000E+00
(PID.TID 0000.0001) %MON obc_W_uVel_min               =   0.0000000000000E+00
(PID.TID 0000.0001) %MON obc_W_uVel_mean              =   0.0000000000000E+00
(PID.TID 0000.0001) %MON obc_W_uVel_sd                =   0.0000000000000E+00
(PID.TID 0000.0001) %MON obc_W_uVel_Int               =   0.0000000000000E+00
(PID.TID 0000.0001) %MON obc_N_vVel_max               =   0.0000000000000E+00
(PID.TID 0000.0001) %MON obc_N_vVel_min               =   0.0000000000000E+00
(PID.TID 0000.0001) %MON obc_N_vVel_mean              =   0.0000000000000E+00
(PID.TID 0000.0001) %MON obc_N_vVel_sd                =   0.0000000000000E+00
(PID.TID 0000.0001) %MON obc_N_vVel_Int               =   0.0000000000000E+00
(PID.TID 0000.0001) // =======================================================
(PID.TID 0000.0001) // End OBCS MONITOR field statistics
(PID.TID 0000.0001) // =======================================================
(PID.TID 0000.0001) // =======================================================
(PID.TID 0000.0001) // Begin MONITOR SEAICE statistics
(PID.TID 0000.0001) // =======================================================
(PID.TID 0000.0001) %MON seaice_tsnumber              =                     8
(PID.TID 0000.0001) %MON seaice_time_sec              =   8.0000000000000E-01
(PID.TID 0000.0001) %MON seaice_uice_max              =   1.2303532817785E-05
(PID.TID 0000.0001) %MON seaice_uice_min              =  -1.2300274331436E-05
(PID.TID 0000.0001) %MON seaice_uice_mean             =   4.5167814380319E-12
(PID.TID 0000.0001) %MON seaice_uice_sd               =   4.9767616472638E-06
(PID.TID 0000.0001) %MON seaice_uice_del2             =   4.8930081485733E-08
(PID.TID 0000.0001) %MON seaice_vice_max              =   0.0000000000000E+00
(PID.TID 0000.0001) %MON seaice_vice_min              =  -3.9980009995002E-04
(PID.TID 0000.0001) %MON seaice_vice_mean             =  -3.0084636914317E-05
(PID.TID 0000.0001) %MON seaice_vice_sd               =   4.1966037049698E-05
(PID.TID 0000.0001) %MON seaice_vice_del2             =   5.9996172463531E-07
(PID.TID 0000.0001) %MON seaice_area_max              =   1.0000000000000E+00
(PID.TID 0000.0001) %MON seaice_area_min              =   0.0000000000000E+00
(PID.TID 0000.0001) %MON seaice_area_mean             =   8.4210526315789E-01
(PID.TID 0000.0001) %MON seaice_area_sd               =   3.6464227527766E-01
(PID.TID 0000.0001) %MON seaice_area_del2             =   5.3165923397485E-03
(PID.TID 0000.0001) %MON seaice_heff_max              =   1.0000006200272E+00
(PID.TID 0000.0001) %MON seaice_heff_min              =   0.0000000000000E+00
(PID.TID 0000.0001) %MON seaice_heff_mean             =   8.4210526857139E-01
(PID.TID 0000.0001) %MON seaice_heff_sd               =   3.6464227762177E-01
(PID.TID 0000.0001) %MON seaice_heff_del2             =   5.3165923734763E-03
(PID.TID 0000.0001) %MON seaice_hsnow_max             =   2.0000012400544E-01
(PID.TID 0000.0001) %MON seaice_hsnow_min             =   0.0000000000000E+00
(PID.TID 0000.0001) %MON seaice_hsnow_mean            =   1.6842105371428E-01
(PID.TID 0000.0001) %MON seaice_hsnow_sd              =   7.2928455524355E-02
(PID.TID 0000.0001) %MON seaice_hsnow_del2            =   1.0633184746953E-03
(PID.TID 0000.0001) // =======================================================
(PID.TID 0000.0001) // End MONITOR SEAICE statistics
(PID.TID 0000.0001) // =======================================================
 Computing Diagnostic #    216  SIsig11      Counter:       1   Parms: SM      M1      
 Computing Diagnostic #    217  SIsig22      Counter:       1   Parms: SM      M1      
 Computing Diagnostic #    155  SIuice       Counter:       1   Parms: UU      M1      
           Vector  Mate for  SIuice       Diagnostic #    156  SIvice   exists 
 Computing Diagnostic #    156  SIvice       Counter:       1   Parms: VV      M1      
           Vector  Mate for  SIvice       Diagnostic #    155  SIuice   exists 
 Computing Diagnostic #    146  SIarea       Counter:       1   Parms: SM      M1      
 Computing Diagnostic #    149  SIheff       Counter:       1   Parms: SM      M1      
 Computing Diagnostic #    219  SIeps11      Counter:       1   Parms: SM      M1      
 Computing Diagnostic #    220  SIeps22      Counter:       1   Parms: SM      M1      
 Computing Diagnostic #    218  SIsig12      Counter:       1   Parms: SM      M1      
 Computing Diagnostic #    221  SIeps12      Counter:       1   Parms: SM      M1      
 SEAICE_LSR: Residual Initial ipass,Uice,Vice=    1  5.35800581E+00  1.62352946E+00
 SEAICE_LSR (ipass=   1) iters,dU,Resid=    92  9.93927831E-12  2.24667868E-04
 SEAICE_LSR (ipass=   1) iters,dV,Resid=  1472  9.94456332E-12  6.23739787E-04
 SEAICE_LSR: Residual Initial ipass,Uice,Vice=    2  5.36095167E+00  1.63177463E+00
 SEAICE_LSR (ipass=   2) iters,dU,Resid=    92  9.94043057E-12  2.21088045E-04
 SEAICE_LSR (ipass=   2) iters,dV,Resid=  1466  9.92056747E-12  6.14844222E-04
 SEAICE_LSR: Residual Initial ipass,Uice,Vice=    3  5.36312767E+00  1.64123358E+00
 SEAICE_LSR (ipass=   3) iters,dU,Resid=    92  9.93430966E-12  2.17437255E-04
 SEAICE_LSR (ipass=   3) iters,dV,Resid=  1458  9.98599521E-12  6.11609825E-04
 SEAICE_LSR: Residual Initial ipass,Uice,Vice=    4  5.36498754E+00  1.65135650E+00
 SEAICE_LSR (ipass=   4) iters,dU,Resid=    92  9.92407153E-12  2.13794802E-04
 SEAICE_LSR (ipass=   4) iters,dV,Resid=  1452  9.97202569E-12  6.03634326E-04
 SEAICE_LSR: Residual Initial ipass,Uice,Vice=    5  5.36669663E+00  1.66198039E+00
 SEAICE_LSR (ipass=   5) iters,dU,Resid=    92  9.91123963E-12  2.10197776E-04
 SEAICE_LSR (ipass=   5) iters,dV,Resid=  1446  9.96556978E-12  5.96289900E-04
 SEAICE_LSR: Residual Initial ipass,Uice,Vice=    6  5.36832945E+00  1.67301309E+00
 SEAICE_LSR (ipass=   6) iters,dU,Resid=    92  9.89658830E-12  2.06663503E-04
 SEAICE_LSR (ipass=   6) iters,dV,Resid=  1440  9.96732784E-12  5.89600498E-04
 SEAICE_LSR: Residual Initial ipass,Uice,Vice=    7  5.36992577E+00  1.68438612E+00
 SEAICE_LSR (ipass=   7) iters,dU,Resid=    92  9.88056062E-12  2.03200181E-04
 SEAICE_LSR (ipass=   7) iters,dV,Resid=  1434  9.97767826E-12  5.83568426E-04
 SEAICE_LSR: Residual Initial ipass,Uice,Vice=    8  5.37150800E+00  1.69604308E+00
 SEAICE_LSR (ipass=   8) iters,dU,Resid=    92  9.86339353E-12  1.99810900E-04
 SEAICE_LSR (ipass=   8) iters,dV,Resid=  1428  9.99682623E-12  5.78184972E-04
 SEAICE_LSR: Residual Initial ipass,Uice,Vice=    9  5.37308910E+00  1.70793634E+00
 SEAICE_LSR (ipass=   9) iters,dU,Resid=    92  9.84519579E-12  1.96495756E-04
 SEAICE_LSR (ipass=   9) iters,dV,Resid=  1424  9.93618309E-12  5.68362188E-04
 SEAICE_LSR: Residual Initial ipass,Uice,Vice=   10  5.37468023E+00  1.72002477E+00
 SEAICE_LSR (ipass=  10) iters,dU,Resid=    92  9.82601437E-12  1.93253981E-04
 SEAICE_LSR (ipass=  10) iters,dV,Resid=  1418  9.97256333E-12  5.64249640E-04
(PID.TID 0000.0001) // =======================================================
(PID.TID 0000.0001) // Begin MONITOR dynamic field statistics
(PID.TID 0000.0001) // =======================================================
(PID.TID 0000.0001) %MON time_tsnumber                =                     9
(PID.TID 0000.0001) %MON time_secondsf                =   9.0000000000000E-01
(PID.TID 0000.0001) %MON dynstat_eta_max              =   0.0000000000000E+00
(PID.TID 0000.0001) %MON dynstat_eta_min              =   0.0000000000000E+00
(PID.TID 0000.0001) %MON dynstat_eta_mean             =   0.0000000000000E+00
(PID.TID 0000.0001) %MON dynstat_eta_sd               =   0.0000000000000E+00
(PID.TID 0000.0001) %MON dynstat_eta_del2             =   0.0000000000000E+00
(PID.TID 0000.0001) %MON dynstat_uvel_max             =   0.0000000000000E+00
(PID.TID 0000.0001) %MON dynstat_uvel_min             =   0.0000000000000E+00
(PID.TID 0000.0001) %MON dynstat_uvel_mean            =   0.0000000000000E+00
(PID.TID 0000.0001) %MON dynstat_uvel_sd              =   0.0000000000000E+00
(PID.TID 0000.0001) %MON dynstat_uvel_del2            =   0.0000000000000E+00
(PID.TID 0000.0001) %MON dynstat_vvel_max             =   0.0000000000000E+00
(PID.TID 0000.0001) %MON dynstat_vvel_min             =   0.0000000000000E+00
(PID.TID 0000.0001) %MON dynstat_vvel_mean            =   0.0000000000000E+00
(PID.TID 0000.0001) %MON dynstat_vvel_sd              =   0.0000000000000E+00
(PID.TID 0000.0001) %MON dynstat_vvel_del2            =   0.0000000000000E+00
(PID.TID 0000.0001) %MON dynstat_wvel_max             =  -0.0000000000000E+00
(PID.TID 0000.0001) %MON dynstat_wvel_min             =  -0.0000000000000E+00
(PID.TID 0000.0001) %MON dynstat_wvel_mean            =   0.0000000000000E+00
(PID.TID 0000.0001) %MON dynstat_wvel_sd              =   0.0000000000000E+00
(PID.TID 0000.0001) %MON dynstat_wvel_del2            =   0.0000000000000E+00
(PID.TID 0000.0001) %MON dynstat_theta_max            =   2.4000000000000E+01
(PID.TID 0000.0001) %MON dynstat_theta_min            =   2.4000000000000E+01
(PID.TID 0000.0001) %MON dynstat_theta_mean           =   2.4000000000000E+01
(PID.TID 0000.0001) %MON dynstat_theta_sd             =   0.0000000000000E+00
(PID.TID 0000.0001) %MON dynstat_theta_del2           =   0.0000000000000E+00
(PID.TID 0000.0001) %MON dynstat_salt_max             =   3.4650000000000E+01
(PID.TID 0000.0001) %MON dynstat_salt_min             =   3.4650000000000E+01
(PID.TID 0000.0001) %MON dynstat_salt_mean            =   3.4650000000000E+01
(PID.TID 0000.0001) %MON dynstat_salt_sd              =   0.0000000000000E+00
(PID.TID 0000.0001) %MON dynstat_salt_del2            =   0.0000000000000E+00
(PID.TID 0000.0001) %MON dynstat_sst_max              =   2.4000000000000E+01
(PID.TID 0000.0001) %MON dynstat_sst_min              =   2.4000000000000E+01
(PID.TID 0000.0001) %MON dynstat_sst_mean             =   2.4000000000000E+01
(PID.TID 0000.0001) %MON dynstat_sst_sd               =   0.0000000000000E+00
(PID.TID 0000.0001) %MON dynstat_sst_del2             =   0.0000000000000E+00
(PID.TID 0000.0001) %MON dynstat_sss_max              =   3.4650000000000E+01
(PID.TID 0000.0001) %MON dynstat_sss_min              =   3.4650000000000E+01
(PID.TID 0000.0001) %MON dynstat_sss_mean             =   3.4650000000000E+01
(PID.TID 0000.0001) %MON dynstat_sss_sd               =   0.0000000000000E+00
(PID.TID 0000.0001) %MON dynstat_sss_del2             =   0.0000000000000E+00
(PID.TID 0000.0001) %MON forcing_qnet_max             =   0.0000000000000E+00
(PID.TID 0000.0001) %MON forcing_qnet_min             =   0.0000000000000E+00
(PID.TID 0000.0001) %MON forcing_qnet_mean            =   0.0000000000000E+00
(PID.TID 0000.0001) %MON forcing_qnet_sd              =   0.0000000000000E+00
(PID.TID 0000.0001) %MON forcing_qnet_del2            =   0.0000000000000E+00
(PID.TID 0000.0001) %MON forcing_qsw_max              =   0.0000000000000E+00
(PID.TID 0000.0001) %MON forcing_qsw_min              =   0.0000000000000E+00
(PID.TID 0000.0001) %MON forcing_qsw_mean             =   0.0000000000000E+00
(PID.TID 0000.0001) %MON forcing_qsw_sd               =   0.0000000000000E+00
(PID.TID 0000.0001) %MON forcing_qsw_del2             =   0.0000000000000E+00
(PID.TID 0000.0001) %MON forcing_empmr_max            =   0.0000000000000E+00
(PID.TID 0000.0001) %MON forcing_empmr_min            =   0.0000000000000E+00
(PID.TID 0000.0001) %MON forcing_empmr_mean           =   0.0000000000000E+00
(PID.TID 0000.0001) %MON forcing_empmr_sd             =   0.0000000000000E+00
(PID.TID 0000.0001) %MON forcing_empmr_del2           =   0.0000000000000E+00
(PID.TID 0000.0001) %MON forcing_fu_max               =   2.7096022942156E-06
(PID.TID 0000.0001) %MON forcing_fu_min               =  -2.7096001683100E-06
(PID.TID 0000.0001) %MON forcing_fu_mean              =   1.0264194346457E-12
(PID.TID 0000.0001) %MON forcing_fu_sd                =   1.3333227440439E-06
(PID.TID 0000.0001) %MON forcing_fu_del2              =   6.8506140689537E-09
(PID.TID 0000.0001) %MON forcing_fv_max               =   0.0000000000000E+00
(PID.TID 0000.0001) %MON forcing_fv_min               =  -1.1244377811095E-04
(PID.TID 0000.0001) %MON forcing_fv_mean              =  -7.9838923145523E-06
(PID.TID 0000.0001) %MON forcing_fv_sd                =   1.1174573927760E-05
(PID.TID 0000.0001) %MON forcing_fv_del2              =   1.6482236928268E-07
(PID.TID 0000.0001) %MON trAdv_CFL_u_max              =   0.0000000000000E+00
(PID.TID 0000.0001) %MON trAdv_CFL_v_max              =   0.0000000000000E+00
(PID.TID 0000.0001) %MON trAdv_CFL_w_max              =   0.0000000000000E+00
(PID.TID 0000.0001) %MON advcfl_uvel_max              =   0.0000000000000E+00
(PID.TID 0000.0001) %MON advcfl_vvel_max              =   0.0000000000000E+00
(PID.TID 0000.0001) %MON advcfl_wvel_max              =   0.0000000000000E+00
(PID.TID 0000.0001) %MON advcfl_W_hf_max              =   0.0000000000000E+00
(PID.TID 0000.0001) %MON pe_b_mean                    =   0.0000000000000E+00
(PID.TID 0000.0001) %MON ke_max                       =   0.0000000000000E+00
(PID.TID 0000.0001) %MON ke_mean                      =   0.0000000000000E+00
(PID.TID 0000.0001) %MON ke_vol                       =   4.6550000000000E+10
(PID.TID 0000.0001) %MON vort_r_min                   =   0.0000000000000E+00
(PID.TID 0000.0001) %MON vort_r_max                   =   0.0000000000000E+00
(PID.TID 0000.0001) %MON vort_a_mean                  =   0.0000000000000E+00
(PID.TID 0000.0001) %MON vort_a_sd                    =   0.0000000000000E+00
(PID.TID 0000.0001) %MON vort_p_mean                  =   0.0000000000000E+00
(PID.TID 0000.0001) %MON vort_p_sd                    =   0.0000000000000E+00
(PID.TID 0000.0001) %MON surfExpan_theta_mean         =   0.0000000000000E+00
(PID.TID 0000.0001) %MON surfExpan_salt_mean          =   0.0000000000000E+00
(PID.TID 0000.0001) // =======================================================
(PID.TID 0000.0001) // End MONITOR dynamic field statistics
(PID.TID 0000.0001) // =======================================================
(PID.TID 0000.0001) // =======================================================
(PID.TID 0000.0001) // Begin OBCS MONITOR field statistics
(PID.TID 0000.0001) // =======================================================
(PID.TID 0000.0001) %MON obc_E_uVel_max               =   0.0000000000000E+00
(PID.TID 0000.0001) %MON obc_E_uVel_min               =   0.0000000000000E+00
(PID.TID 0000.0001) %MON obc_E_uVel_mean              =   0.0000000000000E+00
(PID.TID 0000.0001) %MON obc_E_uVel_sd                =   0.0000000000000E+00
(PID.TID 0000.0001) %MON obc_E_uVel_Int               =   0.0000000000000E+00
(PID.TID 0000.0001) %MON obc_W_uVel_max               =   0.0000000000000E+00
(PID.TID 0000.0001) %MON obc_W_uVel_min               =   0.0000000000000E+00
(PID.TID 0000.0001) %MON obc_W_uVel_mean              =   0.0000000000000E+00
(PID.TID 0000.0001) %MON obc_W_uVel_sd                =   0.0000000000000E+00
(PID.TID 0000.0001) %MON obc_W_uVel_Int               =   0.0000000000000E+00
(PID.TID 0000.0001) %MON obc_N_vVel_max               =   0.0000000000000E+00
(PID.TID 0000.0001) %MON obc_N_vVel_min               =   0.0000000000000E+00
(PID.TID 0000.0001) %MON obc_N_vVel_mean              =   0.0000000000000E+00
(PID.TID 0000.0001) %MON obc_N_vVel_sd                =   0.0000000000000E+00
(PID.TID 0000.0001) %MON obc_N_vVel_Int               =   0.0000000000000E+00
(PID.TID 0000.0001) // =======================================================
(PID.TID 0000.0001) // End OBCS MONITOR field statistics
(PID.TID 0000.0001) // =======================================================
(PID.TID 0000.0001) // =======================================================
(PID.TID 0000.0001) // Begin MONITOR SEAICE statistics
(PID.TID 0000.0001) // =======================================================
(PID.TID 0000.0001) %MON seaice_tsnumber              =                     9
(PID.TID 0000.0001) %MON seaice_time_sec              =   9.0000000000000E-01
(PID.TID 0000.0001) %MON seaice_uice_max              =   1.5306576085668E-05
(PID.TID 0000.0001) %MON seaice_uice_min              =  -1.5303150361577E-05
(PID.TID 0000.0001) %MON seaice_uice_mean             =   4.6836526548595E-12
(PID.TID 0000.0001) %MON seaice_uice_sd               =   5.7092077228782E-06
(PID.TID 0000.0001) %MON seaice_uice_del2             =   5.6327685275435E-08
(PID.TID 0000.0001) %MON seaice_vice_max              =   0.0000000000000E+00
(PID.TID 0000.0001) %MON seaice_vice_min              =  -4.4977511244378E-04
(PID.TID 0000.0001) %MON seaice_vice_mean             =  -3.4424758446231E-05
(PID.TID 0000.0001) %MON seaice_vice_sd               =   4.7290157473025E-05
(PID.TID 0000.0001) %MON seaice_vice_del2             =   6.7411230159018E-07
(PID.TID 0000.0001) %MON seaice_area_max              =   1.0000000000000E+00
(PID.TID 0000.0001) %MON seaice_area_min              =   0.0000000000000E+00
(PID.TID 0000.0001) %MON seaice_area_mean             =   8.4210526315789E-01
(PID.TID 0000.0001) %MON seaice_area_sd               =   3.6464227527766E-01
(PID.TID 0000.0001) %MON seaice_area_del2             =   5.3165923397485E-03
(PID.TID 0000.0001) %MON seaice_heff_max              =   1.0000007735189E+00
(PID.TID 0000.0001) %MON seaice_heff_min              =   0.0000000000000E+00
(PID.TID 0000.0001) %MON seaice_heff_mean             =   8.4210526990371E-01
(PID.TID 0000.0001) %MON seaice_heff_sd               =   3.6464227819869E-01
(PID.TID 0000.0001) %MON seaice_heff_del2             =   5.3165923817418E-03
(PID.TID 0000.0001) %MON seaice_hsnow_max             =   2.0000015470378E-01
(PID.TID 0000.0001) %MON seaice_hsnow_min             =   0.0000000000000E+00
(PID.TID 0000.0001) %MON seaice_hsnow_mean            =   1.6842105398074E-01
(PID.TID 0000.0001) %MON seaice_hsnow_sd              =   7.2928455639737E-02
(PID.TID 0000.0001) %MON seaice_hsnow_del2            =   1.0633184763484E-03
(PID.TID 0000.0001) // =======================================================
(PID.TID 0000.0001) // End MONITOR SEAICE statistics
(PID.TID 0000.0001) // =======================================================
 Computing Diagnostic #    216  SIsig11      Counter:       1   Parms: SM      M1      
 Computing Diagnostic #    217  SIsig22      Counter:       1   Parms: SM      M1      
 Computing Diagnostic #    155  SIuice       Counter:       1   Parms: UU      M1      
           Vector  Mate for  SIuice       Diagnostic #    156  SIvice   exists 
 Computing Diagnostic #    156  SIvice       Counter:       1   Parms: VV      M1      
           Vector  Mate for  SIvice       Diagnostic #    155  SIuice   exists 
 Computing Diagnostic #    146  SIarea       Counter:       1   Parms: SM      M1      
 Computing Diagnostic #    149  SIheff       Counter:       1   Parms: SM      M1      
 Computing Diagnostic #    219  SIeps11      Counter:       1   Parms: SM      M1      
 Computing Diagnostic #    220  SIeps22      Counter:       1   Parms: SM      M1      
 Computing Diagnostic #    218  SIsig12      Counter:       1   Parms: SM      M1      
 Computing Diagnostic #    221  SIeps12      Counter:       1   Parms: SM      M1      
 SEAICE_LSR: Residual Initial ipass,Uice,Vice=    1  5.37786708E+00  1.74548948E+00
 SEAICE_LSR (ipass=   1) iters,dU,Resid=    92  9.79708748E-12  1.87159393E-04
 SEAICE_LSR (ipass=   1) iters,dV,Resid=  1412  9.99898027E-12  5.53081112E-04
 SEAICE_LSR: Residual Initial ipass,Uice,Vice=    2  5.38084328E+00  1.75678928E+00
 SEAICE_LSR (ipass=   2) iters,dU,Resid=    92  9.79981635E-12  1.84622824E-04
 SEAICE_LSR (ipass=   2) iters,dV,Resid=  1408  9.98783047E-12  5.46708468E-04
 SEAICE_LSR: Residual Initial ipass,Uice,Vice=    3  5.38317707E+00  1.76908447E+00
 SEAICE_LSR (ipass=   3) iters,dU,Resid=    92  9.79445689E-12  1.81991826E-04
 SEAICE_LSR (ipass=   3) iters,dV,Resid=  1404  9.97952178E-12  5.40604971E-04
 SEAICE_LSR: Residual Initial ipass,Uice,Vice=    4  5.38525453E+00  1.78197317E+00
 SEAICE_LSR (ipass=   4) iters,dU,Resid=    92  9.78381687E-12  1.79327945E-04
 SEAICE_LSR (ipass=   4) iters,dV,Resid=  1400  9.97607057E-12  5.34881604E-04
 SEAICE_LSR: Residual Initial ipass,Uice,Vice=    5  5.38720518E+00  1.79541702E+00
 SEAICE_LSR (ipass=   5) iters,dU,Resid=    92  9.76932454E-12  1.76661728E-04
 SEAICE_LSR (ipass=   5) iters,dV,Resid=  1396  9.97852956E-12  5.29588199E-04
 SEAICE_LSR: Residual Initial ipass,Uice,Vice=    6  5.38909018E+00  1.80946860E+00
 SEAICE_LSR (ipass=   6) iters,dU,Resid=    92  9.75189622E-12  1.74011776E-04
 SEAICE_LSR (ipass=   6) iters,dV,Resid=  1392  9.98745252E-12  5.24743810E-04
 SEAICE_LSR: Residual Initial ipass,Uice,Vice=    7  5.39094244E+00  1.82423174E+00
 SEAICE_LSR (ipass=   7) iters,dU,Resid=    92  9.73221632E-12  1.71391027E-04
 SEAICE_LSR (ipass=   7) iters,dV,Resid=  1390  9.91184473E-12  5.15603209E-04
 SEAICE_LSR: Residual Initial ipass,Uice,Vice=    8  5.39278392E+00  1.83983862E+00
 SEAICE_LSR (ipass=   8) iters,dU,Resid=    92  9.71087415E-12  1.68810090E-04
 SEAICE_LSR (ipass=   8) iters,dV,Resid=  1386  9.93397722E-12  5.11682475E-04
 SEAICE_LSR: Residual Initial ipass,Uice,Vice=    9  5.39462059E+00  1.85644497E+00
 SEAICE_LSR (ipass=   9) iters,dU,Resid=    92  9.68836927E-12  1.66276240E-04
 SEAICE_LSR (ipass=   9) iters,dV,Resid=  1382  9.96298078E-12  5.08194530E-04
 SEAICE_LSR: Residual Initial ipass,Uice,Vice=   10  5.39645963E+00  1.87420034E+00
 SEAICE_LSR (ipass=  10) iters,dU,Resid=    92  9.66519966E-12  1.63796578E-04
 SEAICE_LSR (ipass=  10) iters,dV,Resid=  1378  9.99887235E-12  5.05128073E-04
(PID.TID 0000.0001) // =======================================================
(PID.TID 0000.0001) // Begin MONITOR dynamic field statistics
(PID.TID 0000.0001) // =======================================================
(PID.TID 0000.0001) %MON time_tsnumber                =                    10
(PID.TID 0000.0001) %MON time_secondsf                =   1.0000000000000E+00
(PID.TID 0000.0001) %MON dynstat_eta_max              =   0.0000000000000E+00
(PID.TID 0000.0001) %MON dynstat_eta_min              =   0.0000000000000E+00
(PID.TID 0000.0001) %MON dynstat_eta_mean             =   0.0000000000000E+00
(PID.TID 0000.0001) %MON dynstat_eta_sd               =   0.0000000000000E+00
(PID.TID 0000.0001) %MON dynstat_eta_del2             =   0.0000000000000E+00
(PID.TID 0000.0001) %MON dynstat_uvel_max             =   0.0000000000000E+00
(PID.TID 0000.0001) %MON dynstat_uvel_min             =   0.0000000000000E+00
(PID.TID 0000.0001) %MON dynstat_uvel_mean            =   0.0000000000000E+00
(PID.TID 0000.0001) %MON dynstat_uvel_sd              =   0.0000000000000E+00
(PID.TID 0000.0001) %MON dynstat_uvel_del2            =   0.0000000000000E+00
(PID.TID 0000.0001) %MON dynstat_vvel_max             =   0.0000000000000E+00
(PID.TID 0000.0001) %MON dynstat_vvel_min             =   0.0000000000000E+00
(PID.TID 0000.0001) %MON dynstat_vvel_mean            =   0.0000000000000E+00
(PID.TID 0000.0001) %MON dynstat_vvel_sd              =   0.0000000000000E+00
(PID.TID 0000.0001) %MON dynstat_vvel_del2            =   0.0000000000000E+00
(PID.TID 0000.0001) %MON dynstat_wvel_max             =  -0.0000000000000E+00
(PID.TID 0000.0001) %MON dynstat_wvel_min             =  -0.0000000000000E+00
(PID.TID 0000.0001) %MON dynstat_wvel_mean            =   0.0000000000000E+00
(PID.TID 0000.0001) %MON dynstat_wvel_sd              =   0.0000000000000E+00
(PID.TID 0000.0001) %MON dynstat_wvel_del2            =   0.0000000000000E+00
(PID.TID 0000.0001) %MON dynstat_theta_max            =   2.4000000000000E+01
(PID.TID 0000.0001) %MON dynstat_theta_min            =   2.4000000000000E+01
(PID.TID 0000.0001) %MON dynstat_theta_mean           =   2.4000000000000E+01
(PID.TID 0000.0001) %MON dynstat_theta_sd             =   0.0000000000000E+00
(PID.TID 0000.0001) %MON dynstat_theta_del2           =   0.0000000000000E+00
(PID.TID 0000.0001) %MON dynstat_salt_max             =   3.4650000000000E+01
(PID.TID 0000.0001) %MON dynstat_salt_min             =   3.4650000000000E+01
(PID.TID 0000.0001) %MON dynstat_salt_mean            =   3.4650000000000E+01
(PID.TID 0000.0001) %MON dynstat_salt_sd              =   0.0000000000000E+00
(PID.TID 0000.0001) %MON dynstat_salt_del2            =   0.0000000000000E+00
(PID.TID 0000.0001) %MON dynstat_sst_max              =   2.4000000000000E+01
(PID.TID 0000.0001) %MON dynstat_sst_min              =   2.4000000000000E+01
(PID.TID 0000.0001) %MON dynstat_sst_mean             =   2.4000000000000E+01
(PID.TID 0000.0001) %MON dynstat_sst_sd               =   0.0000000000000E+00
(PID.TID 0000.0001) %MON dynstat_sst_del2             =   0.0000000000000E+00
(PID.TID 0000.0001) %MON dynstat_sss_max              =   3.4650000000000E+01
(PID.TID 0000.0001) %MON dynstat_sss_min              =   3.4650000000000E+01
(PID.TID 0000.0001) %MON dynstat_sss_mean             =   3.4650000000000E+01
(PID.TID 0000.0001) %MON dynstat_sss_sd               =   0.0000000000000E+00
(PID.TID 0000.0001) %MON dynstat_sss_del2             =   0.0000000000000E+00
(PID.TID 0000.0001) %MON forcing_qnet_max             =   0.0000000000000E+00
(PID.TID 0000.0001) %MON forcing_qnet_min             =   0.0000000000000E+00
(PID.TID 0000.0001) %MON forcing_qnet_mean            =   0.0000000000000E+00
(PID.TID 0000.0001) %MON forcing_qnet_sd              =   0.0000000000000E+00
(PID.TID 0000.0001) %MON forcing_qnet_del2            =   0.0000000000000E+00
(PID.TID 0000.0001) %MON forcing_qsw_max              =   0.0000000000000E+00
(PID.TID 0000.0001) %MON forcing_qsw_min              =   0.0000000000000E+00
(PID.TID 0000.0001) %MON forcing_qsw_mean             =   0.0000000000000E+00
(PID.TID 0000.0001) %MON forcing_qsw_sd               =   0.0000000000000E+00
(PID.TID 0000.0001) %MON forcing_qsw_del2             =   0.0000000000000E+00
(PID.TID 0000.0001) %MON forcing_empmr_max            =   0.0000000000000E+00
(PID.TID 0000.0001) %MON forcing_empmr_min            =   0.0000000000000E+00
(PID.TID 0000.0001) %MON forcing_empmr_mean           =   0.0000000000000E+00
(PID.TID 0000.0001) %MON forcing_empmr_sd             =   0.0000000000000E+00
(PID.TID 0000.0001) %MON forcing_empmr_del2           =   0.0000000000000E+00
(PID.TID 0000.0001) %MON forcing_fu_max               =   3.0472517332733E-06
(PID.TID 0000.0001) %MON forcing_fu_min               =  -3.0472495484847E-06
(PID.TID 0000.0001) %MON forcing_fu_mean              =   1.0491393231204E-12
(PID.TID 0000.0001) %MON forcing_fu_sd                =   1.5059380169928E-06
(PID.TID 0000.0001) %MON forcing_fu_del2              =   7.7677039453908E-09
(PID.TID 0000.0001) %MON forcing_fv_max               =   0.0000000000000E+00
(PID.TID 0000.0001) %MON forcing_fv_min               =  -1.2493753123438E-04
(PID.TID 0000.0001) %MON forcing_fv_mean              =  -9.0167324784171E-06
(PID.TID 0000.0001) %MON forcing_fv_sd                =   1.2444231395495E-05
(PID.TID 0000.0001) %MON forcing_fv_del2              =   1.8294866591542E-07
(PID.TID 0000.0001) %MON trAdv_CFL_u_max              =   0.0000000000000E+00
(PID.TID 0000.0001) %MON trAdv_CFL_v_max              =   0.0000000000000E+00
(PID.TID 0000.0001) %MON trAdv_CFL_w_max              =   0.0000000000000E+00
(PID.TID 0000.0001) %MON advcfl_uvel_max              =   0.0000000000000E+00
(PID.TID 0000.0001) %MON advcfl_vvel_max              =   0.0000000000000E+00
(PID.TID 0000.0001) %MON advcfl_wvel_max              =   0.0000000000000E+00
(PID.TID 0000.0001) %MON advcfl_W_hf_max              =   0.0000000000000E+00
(PID.TID 0000.0001) %MON pe_b_mean                    =   0.0000000000000E+00
(PID.TID 0000.0001) %MON ke_max                       =   0.0000000000000E+00
(PID.TID 0000.0001) %MON ke_mean                      =   0.0000000000000E+00
(PID.TID 0000.0001) %MON ke_vol                       =   4.6550000000000E+10
(PID.TID 0000.0001) %MON vort_r_min                   =   0.0000000000000E+00
(PID.TID 0000.0001) %MON vort_r_max                   =   0.0000000000000E+00
(PID.TID 0000.0001) %MON vort_a_mean                  =   0.0000000000000E+00
(PID.TID 0000.0001) %MON vort_a_sd                    =   0.0000000000000E+00
(PID.TID 0000.0001) %MON vort_p_mean                  =   0.0000000000000E+00
(PID.TID 0000.0001) %MON vort_p_sd                    =   0.0000000000000E+00
(PID.TID 0000.0001) %MON surfExpan_theta_mean         =   0.0000000000000E+00
(PID.TID 0000.0001) %MON surfExpan_salt_mean          =   0.0000000000000E+00
(PID.TID 0000.0001) // =======================================================
(PID.TID 0000.0001) // End MONITOR dynamic field statistics
(PID.TID 0000.0001) // =======================================================
(PID.TID 0000.0001) // =======================================================
(PID.TID 0000.0001) // Begin OBCS MONITOR field statistics
(PID.TID 0000.0001) // =======================================================
(PID.TID 0000.0001) %MON obc_E_uVel_max               =   0.0000000000000E+00
(PID.TID 0000.0001) %MON obc_E_uVel_min               =   0.0000000000000E+00
(PID.TID 0000.0001) %MON obc_E_uVel_mean              =   0.0000000000000E+00
(PID.TID 0000.0001) %MON obc_E_uVel_sd                =   0.0000000000000E+00
(PID.TID 0000.0001) %MON obc_E_uVel_Int               =   0.0000000000000E+00
(PID.TID 0000.0001) %MON obc_W_uVel_max               =   0.0000000000000E+00
(PID.TID 0000.0001) %MON obc_W_uVel_min               =   0.0000000000000E+00
(PID.TID 0000.0001) %MON obc_W_uVel_mean              =   0.0000000000000E+00
(PID.TID 0000.0001) %MON obc_W_uVel_sd                =   0.0000000000000E+00
(PID.TID 0000.0001) %MON obc_W_uVel_Int               =   0.0000000000000E+00
(PID.TID 0000.0001) %MON obc_N_vVel_max               =   0.0000000000000E+00
(PID.TID 0000.0001) %MON obc_N_vVel_min               =   0.0000000000000E+00
(PID.TID 0000.0001) %MON obc_N_vVel_mean              =   0.0000000000000E+00
(PID.TID 0000.0001) %MON obc_N_vVel_sd                =   0.0000000000000E+00
(PID.TID 0000.0001) %MON obc_N_vVel_Int               =   0.0000000000000E+00
(PID.TID 0000.0001) // =======================================================
(PID.TID 0000.0001) // End OBCS MONITOR field statistics
(PID.TID 0000.0001) // =======================================================
(PID.TID 0000.0001) // =======================================================
(PID.TID 0000.0001) // Begin MONITOR SEAICE statistics
(PID.TID 0000.0001) // =======================================================
(PID.TID 0000.0001) %MON seaice_tsnumber              =                    10
(PID.TID 0000.0001) %MON seaice_time_sec              =   1.0000000000000E+00
(PID.TID 0000.0001) %MON seaice_uice_max              =   1.8631081898279E-05
(PID.TID 0000.0001) %MON seaice_uice_min              =  -1.8627498159099E-05
(PID.TID 0000.0001) %MON seaice_uice_mean             =   4.7944846095388E-12
(PID.TID 0000.0001) %MON seaice_uice_sd               =   6.4495912161871E-06
(PID.TID 0000.0001) %MON seaice_uice_del2             =   6.3887609386908E-08
(PID.TID 0000.0001) %MON seaice_vice_max              =   0.0000000000000E+00
(PID.TID 0000.0001) %MON seaice_vice_min              =  -4.9975012493753E-04
(PID.TID 0000.0001) %MON seaice_vice_mean             =  -3.8870149753272E-05
(PID.TID 0000.0001) %MON seaice_vice_sd               =   5.2624516920182E-05
(PID.TID 0000.0001) %MON seaice_vice_del2             =   7.4807943082622E-07
(PID.TID 0000.0001) %MON seaice_area_max              =   1.0000000000000E+00
(PID.TID 0000.0001) %MON seaice_area_min              =   0.0000000000000E+00
(PID.TID 0000.0001) %MON seaice_area_mean             =   8.4210526315789E-01
(PID.TID 0000.0001) %MON seaice_area_sd               =   3.6464227527766E-01
(PID.TID 0000.0001) %MON seaice_area_del2             =   5.3165923397485E-03
(PID.TID 0000.0001) %MON seaice_heff_max              =   1.0000009435626E+00
(PID.TID 0000.0001) %MON seaice_heff_min              =   0.0000000000000E+00
(PID.TID 0000.0001) %MON seaice_heff_mean             =   8.4210527137968E-01
(PID.TID 0000.0001) %MON seaice_heff_sd               =   3.6464227883781E-01
(PID.TID 0000.0001) %MON seaice_heff_del2             =   5.3165923908813E-03
(PID.TID 0000.0001) %MON seaice_hsnow_max             =   2.0000018871252E-01
(PID.TID 0000.0001) %MON seaice_hsnow_min             =   0.0000000000000E+00
(PID.TID 0000.0001) %MON seaice_hsnow_mean            =   1.6842105427594E-01
(PID.TID 0000.0001) %MON seaice_hsnow_sd              =   7.2928455767562E-02
(PID.TID 0000.0001) %MON seaice_hsnow_del2            =   1.0633184781763E-03
(PID.TID 0000.0001) // =======================================================
(PID.TID 0000.0001) // End MONITOR SEAICE statistics
(PID.TID 0000.0001) // =======================================================
 Computing Diagnostic #    216  SIsig11      Counter:       1   Parms: SM      M1      
 Computing Diagnostic #    217  SIsig22      Counter:       1   Parms: SM      M1      
 Computing Diagnostic #    155  SIuice       Counter:       1   Parms: UU      M1      
           Vector  Mate for  SIuice       Diagnostic #    156  SIvice   exists 
 Computing Diagnostic #    156  SIvice       Counter:       1   Parms: VV      M1      
           Vector  Mate for  SIvice       Diagnostic #    155  SIuice   exists 
 Computing Diagnostic #    146  SIarea       Counter:       1   Parms: SM      M1      
 Computing Diagnostic #    149  SIheff       Counter:       1   Parms: SM      M1      
 Computing Diagnostic #    219  SIeps11      Counter:       1   Parms: SM      M1      
 Computing Diagnostic #    220  SIeps22      Counter:       1   Parms: SM      M1      
 Computing Diagnostic #    218  SIsig12      Counter:       1   Parms: SM      M1      
 Computing Diagnostic #    221  SIeps12      Counter:       1   Parms: SM      M1      
(PID.TID 0000.0001) %CHECKPOINT        10 ckptA
(PID.TID 0000.0001)   Seconds in section "ALL                    [THE_MODEL_MAIN]":
(PID.TID 0000.0001)           User time:   15.701602187240496
(PID.TID 0000.0001)         System time:   9.0661003254354000E-002
(PID.TID 0000.0001)     Wall clock time:   15.888689994812012
(PID.TID 0000.0001)          No. starts:           1
(PID.TID 0000.0001)           No. stops:           1
(PID.TID 0000.0001)   Seconds in section "INITIALISE_FIXED       [THE_MODEL_MAIN]":
(PID.TID 0000.0001)           User time:   2.2386000957340002E-002
(PID.TID 0000.0001)         System time:   2.0003000507131219E-002
(PID.TID 0000.0001)     Wall clock time:   4.5975923538208008E-002
(PID.TID 0000.0001)          No. starts:           1
(PID.TID 0000.0001)           No. stops:           1
(PID.TID 0000.0001)   Seconds in section "THE_MAIN_LOOP          [THE_MODEL_MAIN]":
(PID.TID 0000.0001)           User time:   15.679189419373870
(PID.TID 0000.0001)         System time:   7.0653002709150314E-002
(PID.TID 0000.0001)     Wall clock time:   15.842689037322998
(PID.TID 0000.0001)          No. starts:           1
(PID.TID 0000.0001)           No. stops:           1
(PID.TID 0000.0001)   Seconds in section "INITIALISE_VARIA    [THE_MAIN_LOOP]":
(PID.TID 0000.0001)           User time:   5.5900011211633682E-003
(PID.TID 0000.0001)         System time:   2.5410000234842300E-003
(PID.TID 0000.0001)     Wall clock time:   8.1429481506347656E-003
(PID.TID 0000.0001)          No. starts:           1
(PID.TID 0000.0001)           No. stops:           1
(PID.TID 0000.0001)   Seconds in section "MAIN LOOP           [THE_MAIN_LOOP]":
(PID.TID 0000.0001)           User time:   15.673565160483122
(PID.TID 0000.0001)         System time:   6.8109003826975822E-002
(PID.TID 0000.0001)     Wall clock time:   15.834510087966919
(PID.TID 0000.0001)          No. starts:           1
(PID.TID 0000.0001)           No. stops:           1
(PID.TID 0000.0001)   Seconds in section "MAIN_DO_LOOP        [THE_MAIN_LOOP]":
(PID.TID 0000.0001)           User time:   15.673498462885618
(PID.TID 0000.0001)         System time:   6.8104002624750137E-002
(PID.TID 0000.0001)     Wall clock time:   15.834437370300293
(PID.TID 0000.0001)          No. starts:          10
(PID.TID 0000.0001)           No. stops:          10
(PID.TID 0000.0001)   Seconds in section "FORWARD_STEP        [MAIN_DO_LOOP]":
(PID.TID 0000.0001)           User time:   15.673359286040068
(PID.TID 0000.0001)         System time:   6.8096000701189041E-002
(PID.TID 0000.0001)     Wall clock time:   15.834289789199829
(PID.TID 0000.0001)          No. starts:          10
(PID.TID 0000.0001)           No. stops:          10
(PID.TID 0000.0001)   Seconds in section "DO_STATEVARS_DIAGS  [FORWARD_STEP]":
(PID.TID 0000.0001)           User time:   2.2942088544368744E-003
(PID.TID 0000.0001)         System time:   2.5900080800056458E-004
(PID.TID 0000.0001)     Wall clock time:   2.5799274444580078E-003
(PID.TID 0000.0001)          No. starts:          20
(PID.TID 0000.0001)           No. stops:          20
(PID.TID 0000.0001)   Seconds in section "LOAD_FIELDS_DRIVER  [FORWARD_STEP]":
(PID.TID 0000.0001)           User time:   1.7818100750446320E-003
(PID.TID 0000.0001)         System time:   5.2003189921379089E-005
(PID.TID 0000.0001)     Wall clock time:   1.8308162689208984E-003
(PID.TID 0000.0001)          No. starts:          10
(PID.TID 0000.0001)           No. stops:          10
(PID.TID 0000.0001)   Seconds in section "EXF_GETFORCING     [LOAD_FLDS_DRIVER]":
(PID.TID 0000.0001)           User time:   1.5192180871963501E-003
(PID.TID 0000.0001)         System time:   3.0001625418663025E-005
(PID.TID 0000.0001)     Wall clock time:   1.5530586242675781E-003
(PID.TID 0000.0001)          No. starts:          10
(PID.TID 0000.0001)           No. stops:          10
(PID.TID 0000.0001)   Seconds in section "EXTERNAL_FLDS_LOAD [LOAD_FLDS_DRIVER]":
(PID.TID 0000.0001)           User time:   6.2450766563415527E-005
(PID.TID 0000.0001)         System time:   9.0058892965316772E-006
(PID.TID 0000.0001)     Wall clock time:   7.1048736572265625E-005
(PID.TID 0000.0001)          No. starts:          10
(PID.TID 0000.0001)           No. stops:          10
(PID.TID 0000.0001)   Seconds in section "DO_ATMOSPHERIC_PHYS [FORWARD_STEP]":
(PID.TID 0000.0001)           User time:   6.5315514802932739E-005
(PID.TID 0000.0001)         System time:   9.0003013610839844E-006
(PID.TID 0000.0001)     Wall clock time:   7.2479248046875000E-005
(PID.TID 0000.0001)          No. starts:          10
(PID.TID 0000.0001)           No. stops:          10
(PID.TID 0000.0001)   Seconds in section "DO_OCEANIC_PHYS     [FORWARD_STEP]":
(PID.TID 0000.0001)           User time:   15.638098094612360
(PID.TID 0000.0001)         System time:   4.2259005829691887E-002
(PID.TID 0000.0001)     Wall clock time:   15.766416072845459
(PID.TID 0000.0001)          No. starts:          10
(PID.TID 0000.0001)           No. stops:          10
(PID.TID 0000.0001)   Seconds in section "SEAICE_MODEL    [DO_OCEANIC_PHYS]":
(PID.TID 0000.0001)           User time:   15.636356838047504
(PID.TID 0000.0001)         System time:   4.2168991640210152E-002
(PID.TID 0000.0001)     Wall clock time:   15.764580726623535
(PID.TID 0000.0001)          No. starts:          10
(PID.TID 0000.0001)           No. stops:          10
(PID.TID 0000.0001)   Seconds in section "SEAICE_DYNSOLVER   [SEAICE_MODEL]":
(PID.TID 0000.0001)           User time:   15.629721608012915
(PID.TID 0000.0001)         System time:   4.1996996849775314E-002
(PID.TID 0000.0001)     Wall clock time:   15.757779359817505
(PID.TID 0000.0001)          No. starts:          10
(PID.TID 0000.0001)           No. stops:          10
(PID.TID 0000.0001)   Seconds in section "THERMODYNAMICS      [FORWARD_STEP]":
(PID.TID 0000.0001)           User time:   8.2600116729736328E-004
(PID.TID 0000.0001)         System time:   8.0995261669158936E-005
(PID.TID 0000.0001)     Wall clock time:   9.1600418090820312E-004
(PID.TID 0000.0001)          No. starts:          10
(PID.TID 0000.0001)           No. stops:          10
(PID.TID 0000.0001)   Seconds in section "TRC_CORRECTION_STEP [FORWARD_STEP]":
(PID.TID 0000.0001)           User time:   6.0677528381347656E-005
(PID.TID 0000.0001)         System time:   2.0004808902740479E-006
(PID.TID 0000.0001)     Wall clock time:   6.0796737670898438E-005
(PID.TID 0000.0001)          No. starts:          10
(PID.TID 0000.0001)           No. stops:          10
(PID.TID 0000.0001)   Seconds in section "BLOCKING_EXCHANGES  [FORWARD_STEP]":
(PID.TID 0000.0001)           User time:   1.6140937805175781E-004
(PID.TID 0000.0001)         System time:   2.9951333999633789E-006
(PID.TID 0000.0001)     Wall clock time:   1.6570091247558594E-004
(PID.TID 0000.0001)          No. starts:          10
(PID.TID 0000.0001)           No. stops:          10
(PID.TID 0000.0001)   Seconds in section "MONITOR             [FORWARD_STEP]":
(PID.TID 0000.0001)           User time:   9.4904899597167969E-003
(PID.TID 0000.0001)         System time:   4.1000917553901672E-004
(PID.TID 0000.0001)     Wall clock time:   9.9062919616699219E-003
(PID.TID 0000.0001)          No. starts:          10
(PID.TID 0000.0001)           No. stops:          10
(PID.TID 0000.0001)   Seconds in section "DO_THE_MODEL_IO     [FORWARD_STEP]":
(PID.TID 0000.0001)           User time:   1.8155217170715332E-002
(PID.TID 0000.0001)         System time:   2.2365998476743698E-002
(PID.TID 0000.0001)     Wall clock time:   4.7301054000854492E-002
(PID.TID 0000.0001)          No. starts:          10
(PID.TID 0000.0001)           No. stops:          10
(PID.TID 0000.0001)   Seconds in section "DO_WRITE_PICKUP     [FORWARD_STEP]":
(PID.TID 0000.0001)           User time:   1.6671419143676758E-003
(PID.TID 0000.0001)         System time:   2.5810077786445618E-003
(PID.TID 0000.0001)     Wall clock time:   4.2519569396972656E-003
(PID.TID 0000.0001)          No. starts:          10
(PID.TID 0000.0001)           No. stops:          10
(PID.TID 0000.0001) // ======================================================
(PID.TID 0000.0001) // Tile <-> Tile communication statistics
(PID.TID 0000.0001) // ======================================================
(PID.TID 0000.0001) // o Tile number: 000001
(PID.TID 0000.0001) //         No. X exchanges =              0
(PID.TID 0000.0001) //            Max. X spins =              0
(PID.TID 0000.0001) //            Min. X spins =     1000000000
(PID.TID 0000.0001) //          Total. X spins =              0
(PID.TID 0000.0001) //            Avg. X spins =       0.00E+00
(PID.TID 0000.0001) //         No. Y exchanges =              0
(PID.TID 0000.0001) //            Max. Y spins =              0
(PID.TID 0000.0001) //            Min. Y spins =     1000000000
(PID.TID 0000.0001) //          Total. Y spins =              0
(PID.TID 0000.0001) //            Avg. Y spins =       0.00E+00
(PID.TID 0000.0001) // o Thread number: 000001
(PID.TID 0000.0001) //            No. barriers =         165346
(PID.TID 0000.0001) //      Max. barrier spins =              1
(PID.TID 0000.0001) //      Min. barrier spins =              1
(PID.TID 0000.0001) //     Total barrier spins =         165346
(PID.TID 0000.0001) //      Avg. barrier spins =       1.00E+00
PROGRAM MAIN: Execution ended Normally
